<?xml version="1.0" encoding="utf-8"?>
<additional>
	<inductionLoop id="-1138160503_0_0" lane="-1138160503_0" pos="66.995" file="detectors.out.xml" freq="60"/>
	<inductionLoop id="-11443_0_0" lane="-11443_0" pos="56.13" file="detectors.out.xml" freq="60"/>
	<inductionLoop id="-11476_0_0" lane="-11476_0" pos="75.625" file="detectors.out.xml" freq="60"/>
	<inductionLoop id="-222247159_0_0" lane="-222247159_0" pos="86.24" file="detectors.out.xml" freq="60"/>
	<inductionLoop id="-5674514_0_0" lane="-5674514_0" pos="35.655" file="detectors.out.xml" freq="60"/>
	<inductionLoop id="-5678419_0_0" lane="-5678419_0" pos="75.89" file="detectors.out.xml" freq="60"/>
	<inductionLoop id="-587067519_0_0" lane="-587067519_0" pos="110.65" file="detectors.out.xml" freq="60"/>
	<inductionLoop id="-587067527_0_0" lane="-587067527_0" pos="17.56" file="detectors.out.xml" freq="60"/>
	<inductionLoop id="1023708572_0_0" lane="1023708572_0" pos="115.98" file="detectors.out.xml" freq="60"/>
	<inductionLoop id="1122215707_0_0" lane="1122215707_0" pos="21.325" file="detectors.out.xml" freq="60"/>
	<inductionLoop id="1122215707_1_0" lane="1122215707_1" pos="21.325" file="detectors.out.xml" freq="60"/>
	<inductionLoop id="1138160503_0_0" lane="1138160503_0" pos="66.995" file="detectors.out.xml" freq="60"/>
	<inductionLoop id="1138642041_0_0" lane="1138642041_0" pos="84.125" file="detectors.out.xml" freq="60"/>
	<inductionLoop id="1138642041_1_0" lane="1138642041_1" pos="84.125" file="detectors.out.xml" freq="60"/>
	<inductionLoop id="1138642041_2_0" lane="1138642041_2" pos="84.125" file="detectors.out.xml" freq="60"/>
	<inductionLoop id="1138642048_0_0" lane="1138642048_0" pos="84.47" file="detectors.out.xml" freq="60"/>
	<inductionLoop id="1138642049_0_0" lane="1138642049_0" pos="59.795" file="detectors.out.xml" freq="60"/>
	<inductionLoop id="1138642050_0_0" lane="1138642050_0" pos="84.205" file="detectors.out.xml" freq="60"/>
	<inductionLoop id="1138642051_0_0" lane="1138642051_0" pos="47.365" file="detectors.out.xml" freq="60"/>
	<inductionLoop id="1138642052_0_0" lane="1138642052_0" pos="64.175" file="detectors.out.xml" freq="60"/>
	<inductionLoop id="1138642053_0_0" lane="1138642053_0" pos="34.775" file="detectors.out.xml" freq="60"/>
	<inductionLoop id="1138642054_0_0" lane="1138642054_0" pos="33.525" file="detectors.out.xml" freq="60"/>
	<inductionLoop id="1138642055_0_0" lane="1138642055_0" pos="33.935" file="detectors.out.xml" freq="60"/>
	<inductionLoop id="1138642056_0_0" lane="1138642056_0" pos="34.225" file="detectors.out.xml" freq="60"/>
	<inductionLoop id="1138642057_0_0" lane="1138642057_0" pos="36.425" file="detectors.out.xml" freq="60"/>
	<inductionLoop id="1138642058_0_0" lane="1138642058_0" pos="38.29" file="detectors.out.xml" freq="60"/>
	<inductionLoop id="1138642059_0_0" lane="1138642059_0" pos="48.475" file="detectors.out.xml" freq="60"/>
	<inductionLoop id="1138642060_0_0" lane="1138642060_0" pos="63.535" file="detectors.out.xml" freq="60"/>
	<inductionLoop id="1138642061_0_0" lane="1138642061_0" pos="46.545" file="detectors.out.xml" freq="60"/>
	<inductionLoop id="1138642062_0_0" lane="1138642062_0" pos="34.28" file="detectors.out.xml" freq="60"/>
	<inductionLoop id="1138642063_0_0" lane="1138642063_0" pos="35.64" file="detectors.out.xml" freq="60"/>
	<inductionLoop id="1138642064_0_0" lane="1138642064_0" pos="35.47" file="detectors.out.xml" freq="60"/>
	<inductionLoop id="1138642065_0_0" lane="1138642065_0" pos="38.435" file="detectors.out.xml" freq="60"/>
	<inductionLoop id="1138642066_0_0" lane="1138642066_0" pos="34.975" file="detectors.out.xml" freq="60"/>
	<inductionLoop id="1138642067_0_0" lane="1138642067_0" pos="42.95" file="detectors.out.xml" freq="60"/>
	<inductionLoop id="1138642068_0_0" lane="1138642068_0" pos="75.995" file="detectors.out.xml" freq="60"/>
	<inductionLoop id="1138642069_0_0" lane="1138642069_0" pos="116.195" file="detectors.out.xml" freq="60"/>
	<inductionLoop id="1138642070_0_0" lane="1138642070_0" pos="79.18" file="detectors.out.xml" freq="60"/>
	<inductionLoop id="1138642071_0_0" lane="1138642071_0" pos="34.975" file="detectors.out.xml" freq="60"/>
	<inductionLoop id="1138642072_0_0" lane="1138642072_0" pos="45.41" file="detectors.out.xml" freq="60"/>
	<inductionLoop id="1138642073_0_0" lane="1138642073_0" pos="38.84" file="detectors.out.xml" freq="60"/>
	<inductionLoop id="1138642074_0_0" lane="1138642074_0" pos="35.33" file="detectors.out.xml" freq="60"/>
	<inductionLoop id="1138642075_0_0" lane="1138642075_0" pos="35.48" file="detectors.out.xml" freq="60"/>
	<inductionLoop id="1138642076_0_0" lane="1138642076_0" pos="115.475" file="detectors.out.xml" freq="60"/>
	<inductionLoop id="1138642077_0_0" lane="1138642077_0" pos="59.14" file="detectors.out.xml" freq="60"/>
	<inductionLoop id="1138642078_0_0" lane="1138642078_0" pos="12.215" file="detectors.out.xml" freq="60"/>
	<inductionLoop id="1138642079_0_0" lane="1138642079_0" pos="11.0" file="detectors.out.xml" freq="60"/>
	<inductionLoop id="1138642080_0_0" lane="1138642080_0" pos="18.925" file="detectors.out.xml" freq="60"/>
	<inductionLoop id="1138642081_0_0" lane="1138642081_0" pos="84.975" file="detectors.out.xml" freq="60"/>
	<inductionLoop id="1138642082_0_0" lane="1138642082_0" pos="110.21" file="detectors.out.xml" freq="60"/>
	<inductionLoop id="1138642083_0_0" lane="1138642083_0" pos="48.435" file="detectors.out.xml" freq="60"/>
	<inductionLoop id="1138642084_0_0" lane="1138642084_0" pos="61.565" file="detectors.out.xml" freq="60"/>
	<inductionLoop id="1138642085_0_0" lane="1138642085_0" pos="64.91" file="detectors.out.xml" freq="60"/>
	<inductionLoop id="1138642086_0_0" lane="1138642086_0" pos="20.245" file="detectors.out.xml" freq="60"/>
	<inductionLoop id="1138642087_0_0" lane="1138642087_0" pos="84.995" file="detectors.out.xml" freq="60"/>
	<inductionLoop id="1138642088_0_0" lane="1138642088_0" pos="110.15" file="detectors.out.xml" freq="60"/>
	<inductionLoop id="1138642089_0_0" lane="1138642089_0" pos="47.365" file="detectors.out.xml" freq="60"/>
	<inductionLoop id="1138642090_0_0" lane="1138642090_0" pos="64.175" file="detectors.out.xml" freq="60"/>
	<inductionLoop id="1138642091_0_0" lane="1138642091_0" pos="33.93" file="detectors.out.xml" freq="60"/>
	<inductionLoop id="1138642091_1_0" lane="1138642091_1" pos="33.93" file="detectors.out.xml" freq="60"/>
	<inductionLoop id="1138642092_0_0" lane="1138642092_0" pos="34.09" file="detectors.out.xml" freq="60"/>
	<inductionLoop id="1138642092_1_0" lane="1138642092_1" pos="34.09" file="detectors.out.xml" freq="60"/>
	<inductionLoop id="1138642093_0_0" lane="1138642093_0" pos="35.955" file="detectors.out.xml" freq="60"/>
	<inductionLoop id="1138642093_1_0" lane="1138642093_1" pos="35.955" file="detectors.out.xml" freq="60"/>
	<inductionLoop id="1138642094_0_0" lane="1138642094_0" pos="35.92" file="detectors.out.xml" freq="60"/>
	<inductionLoop id="1138642094_1_0" lane="1138642094_1" pos="35.92" file="detectors.out.xml" freq="60"/>
	<inductionLoop id="1138642095_0_0" lane="1138642095_0" pos="35.57" file="detectors.out.xml" freq="60"/>
	<inductionLoop id="1138642095_1_0" lane="1138642095_1" pos="35.57" file="detectors.out.xml" freq="60"/>
	<inductionLoop id="1138642096_0_0" lane="1138642096_0" pos="35.555" file="detectors.out.xml" freq="60"/>
	<inductionLoop id="1138642096_1_0" lane="1138642096_1" pos="35.555" file="detectors.out.xml" freq="60"/>
	<inductionLoop id="1138642097_0_0" lane="1138642097_0" pos="35.57" file="detectors.out.xml" freq="60"/>
	<inductionLoop id="1138642097_1_0" lane="1138642097_1" pos="35.57" file="detectors.out.xml" freq="60"/>
	<inductionLoop id="1138642098_0_0" lane="1138642098_0" pos="35.23" file="detectors.out.xml" freq="60"/>
	<inductionLoop id="1138642098_1_0" lane="1138642098_1" pos="35.23" file="detectors.out.xml" freq="60"/>
	<inductionLoop id="1138642099_0_0" lane="1138642099_0" pos="75.39" file="detectors.out.xml" freq="60"/>
	<inductionLoop id="1138642099_1_0" lane="1138642099_1" pos="75.39" file="detectors.out.xml" freq="60"/>
	<inductionLoop id="1138642100_0_0" lane="1138642100_0" pos="33.89" file="detectors.out.xml" freq="60"/>
	<inductionLoop id="1138642101_0_0" lane="1138642101_0" pos="44.605" file="detectors.out.xml" freq="60"/>
	<inductionLoop id="1138642102_0_0" lane="1138642102_0" pos="35.44" file="detectors.out.xml" freq="60"/>
	<inductionLoop id="1138642102_1_0" lane="1138642102_1" pos="35.44" file="detectors.out.xml" freq="60"/>
	<inductionLoop id="1138642102_2_0" lane="1138642102_2" pos="35.44" file="detectors.out.xml" freq="60"/>
	<inductionLoop id="1138642103_0_0" lane="1138642103_0" pos="36.46" file="detectors.out.xml" freq="60"/>
	<inductionLoop id="1138642103_1_0" lane="1138642103_1" pos="36.46" file="detectors.out.xml" freq="60"/>
	<inductionLoop id="1138642103_2_0" lane="1138642103_2" pos="36.46" file="detectors.out.xml" freq="60"/>
	<inductionLoop id="1138642104_0_0" lane="1138642104_0" pos="34.995" file="detectors.out.xml" freq="60"/>
	<inductionLoop id="1138642104_1_0" lane="1138642104_1" pos="34.995" file="detectors.out.xml" freq="60"/>
	<inductionLoop id="1138642105_0_0" lane="1138642105_0" pos="35.55" file="detectors.out.xml" freq="60"/>
	<inductionLoop id="1138642105_1_0" lane="1138642105_1" pos="35.55" file="detectors.out.xml" freq="60"/>
	<inductionLoop id="1138642106_0_0" lane="1138642106_0" pos="34.755" file="detectors.out.xml" freq="60"/>
	<inductionLoop id="1138642106_1_0" lane="1138642106_1" pos="34.755" file="detectors.out.xml" freq="60"/>
	<inductionLoop id="1138642107_0_0" lane="1138642107_0" pos="34.87" file="detectors.out.xml" freq="60"/>
	<inductionLoop id="1138642108_0_0" lane="1138642108_0" pos="34.66" file="detectors.out.xml" freq="60"/>
	<inductionLoop id="1138642109_0_0" lane="1138642109_0" pos="75.895" file="detectors.out.xml" freq="60"/>
	<inductionLoop id="1138642110_0_0" lane="1138642110_0" pos="34.775" file="detectors.out.xml" freq="60"/>
	<inductionLoop id="1138642111_0_0" lane="1138642111_0" pos="33.525" file="detectors.out.xml" freq="60"/>
	<inductionLoop id="1138642112_0_0" lane="1138642112_0" pos="23.645" file="detectors.out.xml" freq="60"/>
	<inductionLoop id="1138642112_1_0" lane="1138642112_1" pos="23.645" file="detectors.out.xml" freq="60"/>
	<inductionLoop id="1138642113_0_0" lane="1138642113_0" pos="51.755" file="detectors.out.xml" freq="60"/>
	<inductionLoop id="1138642113_1_0" lane="1138642113_1" pos="51.755" file="detectors.out.xml" freq="60"/>
	<inductionLoop id="1138642114_0_0" lane="1138642114_0" pos="37.37" file="detectors.out.xml" freq="60"/>
	<inductionLoop id="1138642114_1_0" lane="1138642114_1" pos="37.37" file="detectors.out.xml" freq="60"/>
	<inductionLoop id="1138642115_0_0" lane="1138642115_0" pos="35.71" file="detectors.out.xml" freq="60"/>
	<inductionLoop id="1138642116_0_0" lane="1138642116_0" pos="34.745" file="detectors.out.xml" freq="60"/>
	<inductionLoop id="1138642117_0_0" lane="1138642117_0" pos="34.835" file="detectors.out.xml" freq="60"/>
	<inductionLoop id="1138642118_0_0" lane="1138642118_0" pos="58.295" file="detectors.out.xml" freq="60"/>
	<inductionLoop id="1138642119_0_0" lane="1138642119_0" pos="17.335" file="detectors.out.xml" freq="60"/>
	<inductionLoop id="1138642120_0_0" lane="1138642120_0" pos="117.32" file="detectors.out.xml" freq="60"/>
	<inductionLoop id="1138642121_0_0" lane="1138642121_0" pos="33.935" file="detectors.out.xml" freq="60"/>
	<inductionLoop id="1138642122_0_0" lane="1138642122_0" pos="34.225" file="detectors.out.xml" freq="60"/>
	<inductionLoop id="1138642123_0_0" lane="1138642123_0" pos="36.425" file="detectors.out.xml" freq="60"/>
	<inductionLoop id="1138642124_0_0" lane="1138642124_0" pos="44.22" file="detectors.out.xml" freq="60"/>
	<inductionLoop id="1138642124_1_0" lane="1138642124_1" pos="44.22" file="detectors.out.xml" freq="60"/>
	<inductionLoop id="1138642125_0_0" lane="1138642125_0" pos="39.605" file="detectors.out.xml" freq="60"/>
	<inductionLoop id="1138642125_1_0" lane="1138642125_1" pos="39.605" file="detectors.out.xml" freq="60"/>
	<inductionLoop id="1138642126_0_0" lane="1138642126_0" pos="40.29" file="detectors.out.xml" freq="60"/>
	<inductionLoop id="1138642126_1_0" lane="1138642126_1" pos="40.29" file="detectors.out.xml" freq="60"/>
	<inductionLoop id="1138642127_0_0" lane="1138642127_0" pos="38.29" file="detectors.out.xml" freq="60"/>
	<inductionLoop id="1138642128_0_0" lane="1138642128_0" pos="48.475" file="detectors.out.xml" freq="60"/>
	<inductionLoop id="1138642129_0_0" lane="1138642129_0" pos="36.215" file="detectors.out.xml" freq="60"/>
	<inductionLoop id="1138642130_0_0" lane="1138642130_0" pos="24.145" file="detectors.out.xml" freq="60"/>
	<inductionLoop id="1138642131_0_0" lane="1138642131_0" pos="40.82" file="detectors.out.xml" freq="60"/>
	<inductionLoop id="1138642132_0_0" lane="1138642132_0" pos="13.74" file="detectors.out.xml" freq="60"/>
	<inductionLoop id="1138642133_0_0" lane="1138642133_0" pos="35.245" file="detectors.out.xml" freq="60"/>
	<inductionLoop id="1138642134_0_0" lane="1138642134_0" pos="31.595" file="detectors.out.xml" freq="60"/>
	<inductionLoop id="1138642135_0_0" lane="1138642135_0" pos="26.585" file="detectors.out.xml" freq="60"/>
	<inductionLoop id="1138642136_0_0" lane="1138642136_0" pos="63.535" file="detectors.out.xml" freq="60"/>
	<inductionLoop id="1138642137_0_0" lane="1138642137_0" pos="46.545" file="detectors.out.xml" freq="60"/>
	<inductionLoop id="1138642138_0_0" lane="1138642138_0" pos="116.01" file="detectors.out.xml" freq="60"/>
	<inductionLoop id="1138642139_0_0" lane="1138642139_0" pos="29.115" file="detectors.out.xml" freq="60"/>
	<inductionLoop id="1138642140_0_0" lane="1138642140_0" pos="34.28" file="detectors.out.xml" freq="60"/>
	<inductionLoop id="1138642141_0_0" lane="1138642141_0" pos="35.64" file="detectors.out.xml" freq="60"/>
	<inductionLoop id="1138642142_0_0" lane="1138642142_0" pos="35.47" file="detectors.out.xml" freq="60"/>
	<inductionLoop id="1138642143_0_0" lane="1138642143_0" pos="38.435" file="detectors.out.xml" freq="60"/>
	<inductionLoop id="1138642144_0_0" lane="1138642144_0" pos="34.82" file="detectors.out.xml" freq="60"/>
	<inductionLoop id="1138642145_0_0" lane="1138642145_0" pos="42.95" file="detectors.out.xml" freq="60"/>
	<inductionLoop id="1138642146_0_0" lane="1138642146_0" pos="76.0" file="detectors.out.xml" freq="60"/>
	<inductionLoop id="1138642147_0_0" lane="1138642147_0" pos="116.245" file="detectors.out.xml" freq="60"/>
	<inductionLoop id="1138642148_0_0" lane="1138642148_0" pos="79.18" file="detectors.out.xml" freq="60"/>
	<inductionLoop id="1138642149_0_0" lane="1138642149_0" pos="34.585" file="detectors.out.xml" freq="60"/>
	<inductionLoop id="1138642149_1_0" lane="1138642149_1" pos="34.585" file="detectors.out.xml" freq="60"/>
	<inductionLoop id="1138642150_0_0" lane="1138642150_0" pos="34.67" file="detectors.out.xml" freq="60"/>
	<inductionLoop id="1138642150_1_0" lane="1138642150_1" pos="34.67" file="detectors.out.xml" freq="60"/>
	<inductionLoop id="1138642151_0_0" lane="1138642151_0" pos="33.06" file="detectors.out.xml" freq="60"/>
	<inductionLoop id="1138642151_1_0" lane="1138642151_1" pos="33.06" file="detectors.out.xml" freq="60"/>
	<inductionLoop id="1138642152_0_0" lane="1138642152_0" pos="33.74" file="detectors.out.xml" freq="60"/>
	<inductionLoop id="1138642152_1_0" lane="1138642152_1" pos="33.74" file="detectors.out.xml" freq="60"/>
	<inductionLoop id="1138642153_0_0" lane="1138642153_0" pos="34.03" file="detectors.out.xml" freq="60"/>
	<inductionLoop id="1138642154_0_0" lane="1138642154_0" pos="33.54" file="detectors.out.xml" freq="60"/>
	<inductionLoop id="1138642155_0_0" lane="1138642155_0" pos="52.925" file="detectors.out.xml" freq="60"/>
	<inductionLoop id="1138642156_0_0" lane="1138642156_0" pos="70.44" file="detectors.out.xml" freq="60"/>
	<inductionLoop id="1138642157_0_0" lane="1138642157_0" pos="50.03" file="detectors.out.xml" freq="60"/>
	<inductionLoop id="1138642158_0_0" lane="1138642158_0" pos="30.82" file="detectors.out.xml" freq="60"/>
	<inductionLoop id="1138642159_0_0" lane="1138642159_0" pos="57.235" file="detectors.out.xml" freq="60"/>
	<inductionLoop id="1138642160_0_0" lane="1138642160_0" pos="39.86" file="detectors.out.xml" freq="60"/>
	<inductionLoop id="1138642161_0_0" lane="1138642161_0" pos="25.06" file="detectors.out.xml" freq="60"/>
	<inductionLoop id="1138642162_0_0" lane="1138642162_0" pos="35.345" file="detectors.out.xml" freq="60"/>
	<inductionLoop id="1138642163_0_0" lane="1138642163_0" pos="32.705" file="detectors.out.xml" freq="60"/>
	<inductionLoop id="1138642164_0_0" lane="1138642164_0" pos="34.2" file="detectors.out.xml" freq="60"/>
	<inductionLoop id="1138642165_0_0" lane="1138642165_0" pos="34.57" file="detectors.out.xml" freq="60"/>
	<inductionLoop id="1138642166_0_0" lane="1138642166_0" pos="35.975" file="detectors.out.xml" freq="60"/>
	<inductionLoop id="1138642167_0_0" lane="1138642167_0" pos="34.885" file="detectors.out.xml" freq="60"/>
	<inductionLoop id="1138642168_0_0" lane="1138642168_0" pos="116.105" file="detectors.out.xml" freq="60"/>
	<inductionLoop id="1138642169_0_0" lane="1138642169_0" pos="97.485" file="detectors.out.xml" freq="60"/>
	<inductionLoop id="1138642170_0_0" lane="1138642170_0" pos="34.975" file="detectors.out.xml" freq="60"/>
	<inductionLoop id="1138642171_0_0" lane="1138642171_0" pos="45.41" file="detectors.out.xml" freq="60"/>
	<inductionLoop id="1138642172_0_0" lane="1138642172_0" pos="84.43" file="detectors.out.xml" freq="60"/>
	<inductionLoop id="1138642173_0_0" lane="1138642173_0" pos="110.755" file="detectors.out.xml" freq="60"/>
	<inductionLoop id="1138642174_0_0" lane="1138642174_0" pos="114.985" file="detectors.out.xml" freq="60"/>
	<inductionLoop id="1138642175_0_0" lane="1138642175_0" pos="116.05" file="detectors.out.xml" freq="60"/>
	<inductionLoop id="1138642176_0_0" lane="1138642176_0" pos="33.78" file="detectors.out.xml" freq="60"/>
	<inductionLoop id="1138642177_0_0" lane="1138642177_0" pos="34.925" file="detectors.out.xml" freq="60"/>
	<inductionLoop id="1138642178_0_0" lane="1138642178_0" pos="34.59" file="detectors.out.xml" freq="60"/>
	<inductionLoop id="1138642179_0_0" lane="1138642179_0" pos="40.15" file="detectors.out.xml" freq="60"/>
	<inductionLoop id="1138642179_1_0" lane="1138642179_1" pos="40.15" file="detectors.out.xml" freq="60"/>
	<inductionLoop id="1138642180_0_0" lane="1138642180_0" pos="38.755" file="detectors.out.xml" freq="60"/>
	<inductionLoop id="1138642180_1_0" lane="1138642180_1" pos="38.755" file="detectors.out.xml" freq="60"/>
	<inductionLoop id="1138642181_0_0" lane="1138642181_0" pos="38.28" file="detectors.out.xml" freq="60"/>
	<inductionLoop id="1138642181_1_0" lane="1138642181_1" pos="38.28" file="detectors.out.xml" freq="60"/>
	<inductionLoop id="1138642182_0_0" lane="1138642182_0" pos="53.16" file="detectors.out.xml" freq="60"/>
	<inductionLoop id="1138642183_0_0" lane="1138642183_0" pos="50.44" file="detectors.out.xml" freq="60"/>
	<inductionLoop id="1138642184_0_0" lane="1138642184_0" pos="11.79" file="detectors.out.xml" freq="60"/>
	<inductionLoop id="1138642185_0_0" lane="1138642185_0" pos="48.895" file="detectors.out.xml" freq="60"/>
	<inductionLoop id="1138642186_0_0" lane="1138642186_0" pos="22.155" file="detectors.out.xml" freq="60"/>
	<inductionLoop id="1138642187_0_0" lane="1138642187_0" pos="44.53" file="detectors.out.xml" freq="60"/>
	<inductionLoop id="1138642188_0_0" lane="1138642188_0" pos="76.375" file="detectors.out.xml" freq="60"/>
	<inductionLoop id="1138642189_0_0" lane="1138642189_0" pos="38.845" file="detectors.out.xml" freq="60"/>
	<inductionLoop id="1138642190_0_0" lane="1138642190_0" pos="35.33" file="detectors.out.xml" freq="60"/>
	<inductionLoop id="1138642191_0_0" lane="1138642191_0" pos="35.49" file="detectors.out.xml" freq="60"/>
	<inductionLoop id="1138642192_0_0" lane="1138642192_0" pos="115.475" file="detectors.out.xml" freq="60"/>
	<inductionLoop id="1138642193_0_0" lane="1138642193_0" pos="34.545" file="detectors.out.xml" freq="60"/>
	<inductionLoop id="1138642193_1_0" lane="1138642193_1" pos="34.545" file="detectors.out.xml" freq="60"/>
	<inductionLoop id="1138642194_0_0" lane="1138642194_0" pos="34.04" file="detectors.out.xml" freq="60"/>
	<inductionLoop id="1138642194_1_0" lane="1138642194_1" pos="34.04" file="detectors.out.xml" freq="60"/>
	<inductionLoop id="1138642195_0_0" lane="1138642195_0" pos="59.14" file="detectors.out.xml" freq="60"/>
	<inductionLoop id="1138642196_0_0" lane="1138642196_0" pos="12.215" file="detectors.out.xml" freq="60"/>
	<inductionLoop id="1138642197_0_0" lane="1138642197_0" pos="11.0" file="detectors.out.xml" freq="60"/>
	<inductionLoop id="1138642198_0_0" lane="1138642198_0" pos="18.925" file="detectors.out.xml" freq="60"/>
	<inductionLoop id="1138642199_0_0" lane="1138642199_0" pos="16.585" file="detectors.out.xml" freq="60"/>
	<inductionLoop id="1138642199_1_0" lane="1138642199_1" pos="16.585" file="detectors.out.xml" freq="60"/>
	<inductionLoop id="1138642200_0_0" lane="1138642200_0" pos="31.3" file="detectors.out.xml" freq="60"/>
	<inductionLoop id="1138642200_1_0" lane="1138642200_1" pos="31.3" file="detectors.out.xml" freq="60"/>
	<inductionLoop id="1138642203_0_0" lane="1138642203_0" pos="13.44" file="detectors.out.xml" freq="60"/>
	<inductionLoop id="1138642203_1_0" lane="1138642203_1" pos="13.44" file="detectors.out.xml" freq="60"/>
	<inductionLoop id="221688254_0_0" lane="221688254_0" pos="12.42" file="detectors.out.xml" freq="60"/>
	<inductionLoop id="221688254_1_0" lane="221688254_1" pos="12.42" file="detectors.out.xml" freq="60"/>
	<inductionLoop id="221688254_2_0" lane="221688254_2" pos="12.42" file="detectors.out.xml" freq="60"/>
	<inductionLoop id="221688254_3_0" lane="221688254_3" pos="12.42" file="detectors.out.xml" freq="60"/>
	<inductionLoop id="221696379_0_0" lane="221696379_0" pos="43.73" file="detectors.out.xml" freq="60"/>
	<inductionLoop id="221696379_1_0" lane="221696379_1" pos="43.73" file="detectors.out.xml" freq="60"/>
	<inductionLoop id="221696385_0_0" lane="221696385_0" pos="12.215" file="detectors.out.xml" freq="60"/>
	<inductionLoop id="222247159_0_0" lane="222247159_0" pos="86.23" file="detectors.out.xml" freq="60"/>
	<inductionLoop id="5674514_0_0" lane="5674514_0" pos="35.66" file="detectors.out.xml" freq="60"/>
	<inductionLoop id="5676884_0_0" lane="5676884_0" pos="46.27" file="detectors.out.xml" freq="60"/>
	<inductionLoop id="5677430_0_0" lane="5677430_0" pos="109.32" file="detectors.out.xml" freq="60"/>
	<inductionLoop id="5677430_1_0" lane="5677430_1" pos="109.32" file="detectors.out.xml" freq="60"/>
	<inductionLoop id="5677430_2_0" lane="5677430_2" pos="109.32" file="detectors.out.xml" freq="60"/>
	<inductionLoop id="5678419_0_0" lane="5678419_0" pos="75.89" file="detectors.out.xml" freq="60"/>
	<inductionLoop id="5680704_0_0" lane="5680704_0" pos="19.05" file="detectors.out.xml" freq="60"/>
	<inductionLoop id="5681207_0_0" lane="5681207_0" pos="57.19" file="detectors.out.xml" freq="60"/>
	<inductionLoop id="587067519_0_0" lane="587067519_0" pos="110.65" file="detectors.out.xml" freq="60"/>
	<inductionLoop id="587067527_0_0" lane="587067527_0" pos="17.56" file="detectors.out.xml" freq="60"/>
	<inductionLoop id="618977200_0_0" lane="618977200_0" pos="20.715" file="detectors.out.xml" freq="60"/>
	<inductionLoop id="618977200_1_0" lane="618977200_1" pos="20.715" file="detectors.out.xml" freq="60"/>
	<inductionLoop id="618977203_0_0" lane="618977203_0" pos="17.53" file="detectors.out.xml" freq="60"/>
	<inductionLoop id="618977203_1_0" lane="618977203_1" pos="17.53" file="detectors.out.xml" freq="60"/>
	<inductionLoop id="817722190_0_0" lane="817722190_0" pos="15.425" file="detectors.out.xml" freq="60"/>
	<inductionLoop id="817722190_1_0" lane="817722190_1" pos="15.425" file="detectors.out.xml" freq="60"/>
	<inductionLoop id="901349612_0_0" lane="901349612_0" pos="51.75" file="detectors.out.xml" freq="60"/>
	<inductionLoop id="944189670_0_0" lane="944189670_0" pos="36.4" file="detectors.out.xml" freq="60"/>
	<inductionLoop id="944189670_1_0" lane="944189670_1" pos="36.4" file="detectors.out.xml" freq="60"/>
	<inductionLoop id="954657728_0_0" lane="954657728_0" pos="19.41" file="detectors.out.xml" freq="60"/>
	<inductionLoop id="954657728_1_0" lane="954657728_1" pos="19.41" file="detectors.out.xml" freq="60"/>
	<inductionLoop id="954657728_2_0" lane="954657728_2" pos="19.41" file="detectors.out.xml" freq="60"/>
	<inductionLoop id="981502360_0_0" lane="981502360_0" pos="12.94" file="detectors.out.xml" freq="60"/>
	<inductionLoop id="981502360_1_0" lane="981502360_1" pos="12.94" file="detectors.out.xml" freq="60"/>
	<inductionLoop id="981502360_2_0" lane="981502360_2" pos="12.94" file="detectors.out.xml" freq="60"/>
	<inductionLoop id="981502361_0_0" lane="981502361_0" pos="15.93" file="detectors.out.xml" freq="60"/>
	<inductionLoop id="981502361_1_0" lane="981502361_1" pos="15.93" file="detectors.out.xml" freq="60"/>
	<inductionLoop id="981502363_0_0" lane="981502363_0" pos="14.495" file="detectors.out.xml" freq="60"/>
	<inductionLoop id="981502363_1_0" lane="981502363_1" pos="14.495" file="detectors.out.xml" freq="60"/>
	<inductionLoop id="981502363_2_0" lane="981502363_2" pos="14.495" file="detectors.out.xml" freq="60"/>
</additional>
