<?xml version="1.0" encoding="UTF-8"?>

<!-- generated on 2025-01-14 17:55:48.317539 by randomTrips.py v1_16_0+0000-94ec4c6cd72
<configuration>
    <begin value="0"/>
    <end value="1"/>
    <flows value="201"/>
    <jtrrouter value="True"/>
    <net-file value="h:\TRANSIT\bin/../models/real_world_streets/road.net.xml"/>
    <trip-attributes value="departPos='random' departSpeed='max'"/>
    <output-trip-file value="h:\TRANSIT\bin/../models/real_world_streets//passenger.flow.xml"/>
    <vehicle-class value="passenger"/>
</configuration>
-->

<routes xmlns:xsi="http://www.w3.org/2001/XMLSchema-instance" xsi:noNamespaceSchemaLocation="http://sumo.dlr.de/xsd/routes_file.xsd">
    <vType id="passenger" vClass="passenger"/>
    <flow id="passenger.0" begin="0" end="1" period="201" from="1138642157" departPos='random' departSpeed='max' type="passenger"/>
    <flow id="passenger.1" begin="0" end="1" period="201" from="1138642088" departPos='random' departSpeed='max' type="passenger"/>
    <flow id="passenger.2" begin="0" end="1" period="201" from="1138642175" departPos='random' departSpeed='max' type="passenger"/>
    <flow id="passenger.3" begin="0" end="1" period="201" from="221696379" departPos='random' departSpeed='max' type="passenger"/>
    <flow id="passenger.4" begin="0" end="1" period="201" from="1138642116" departPos='random' departSpeed='max' type="passenger"/>
    <flow id="passenger.5" begin="0" end="1" period="201" from="1138642077" departPos='random' departSpeed='max' type="passenger"/>
    <flow id="passenger.6" begin="0" end="1" period="201" from="-5678419" departPos='random' departSpeed='max' type="passenger"/>
    <flow id="passenger.7" begin="0" end="1" period="201" from="1138642159" departPos='random' departSpeed='max' type="passenger"/>
    <flow id="passenger.8" begin="0" end="1" period="201" from="1138642077" departPos='random' departSpeed='max' type="passenger"/>
    <flow id="passenger.9" begin="0" end="1" period="201" from="1138642189" departPos='random' departSpeed='max' type="passenger"/>
    <flow id="passenger.10" begin="0" end="1" period="201" from="1138642189" departPos='random' departSpeed='max' type="passenger"/>
    <flow id="passenger.11" begin="0" end="1" period="201" from="1138642100" departPos='random' departSpeed='max' type="passenger"/>
    <flow id="passenger.12" begin="0" end="1" period="201" from="618977200" departPos='random' departSpeed='max' type="passenger"/>
    <flow id="passenger.13" begin="0" end="1" period="201" from="1138642052" departPos='random' departSpeed='max' type="passenger"/>
    <flow id="passenger.14" begin="0" end="1" period="201" from="1138642197" departPos='random' departSpeed='max' type="passenger"/>
    <flow id="passenger.15" begin="0" end="1" period="201" from="1138642189" departPos='random' departSpeed='max' type="passenger"/>
    <flow id="passenger.16" begin="0" end="1" period="201" from="1138642137" departPos='random' departSpeed='max' type="passenger"/>
    <flow id="passenger.17" begin="0" end="1" period="201" from="1138642107" departPos='random' departSpeed='max' type="passenger"/>
    <flow id="passenger.18" begin="0" end="1" period="201" from="1138642193" departPos='random' departSpeed='max' type="passenger"/>
    <flow id="passenger.19" begin="0" end="1" period="201" from="1138642199" departPos='random' departSpeed='max' type="passenger"/>
    <flow id="passenger.20" begin="0" end="1" period="201" from="1138642169" departPos='random' departSpeed='max' type="passenger"/>
    <flow id="passenger.21" begin="0" end="1" period="201" from="1138642079" departPos='random' departSpeed='max' type="passenger"/>
    <flow id="passenger.22" begin="0" end="1" period="201" from="1138642050" departPos='random' departSpeed='max' type="passenger"/>
    <flow id="passenger.23" begin="0" end="1" period="201" from="1138642054" departPos='random' departSpeed='max' type="passenger"/>
    <flow id="passenger.24" begin="0" end="1" period="201" from="1138642156" departPos='random' departSpeed='max' type="passenger"/>
    <flow id="passenger.25" begin="0" end="1" period="201" from="1138642106" departPos='random' departSpeed='max' type="passenger"/>
    <flow id="passenger.26" begin="0" end="1" period="201" from="1138642086" departPos='random' departSpeed='max' type="passenger"/>
    <flow id="passenger.27" begin="0" end="1" period="201" from="1138642159" departPos='random' departSpeed='max' type="passenger"/>
    <flow id="passenger.28" begin="0" end="1" period="201" from="1138642068" departPos='random' departSpeed='max' type="passenger"/>
    <flow id="passenger.29" begin="0" end="1" period="201" from="1138642067" departPos='random' departSpeed='max' type="passenger"/>
    <flow id="passenger.30" begin="0" end="1" period="201" from="981502361" departPos='random' departSpeed='max' type="passenger"/>
    <flow id="passenger.31" begin="0" end="1" period="201" from="1138642141" departPos='random' departSpeed='max' type="passenger"/>
    <flow id="passenger.32" begin="0" end="1" period="201" from="1138642196" departPos='random' departSpeed='max' type="passenger"/>
    <flow id="passenger.33" begin="0" end="1" period="201" from="1138642079" departPos='random' departSpeed='max' type="passenger"/>
    <flow id="passenger.34" begin="0" end="1" period="201" from="1138642095" departPos='random' departSpeed='max' type="passenger"/>
    <flow id="passenger.35" begin="0" end="1" period="201" from="1138642076" departPos='random' departSpeed='max' type="passenger"/>
    <flow id="passenger.36" begin="0" end="1" period="201" from="1138642202" departPos='random' departSpeed='max' type="passenger"/>
    <flow id="passenger.37" begin="0" end="1" period="201" from="1138642160" departPos='random' departSpeed='max' type="passenger"/>
    <flow id="passenger.38" begin="0" end="1" period="201" from="5676884" departPos='random' departSpeed='max' type="passenger"/>
    <flow id="passenger.39" begin="0" end="1" period="201" from="1138642086" departPos='random' departSpeed='max' type="passenger"/>
    <flow id="passenger.40" begin="0" end="1" period="201" from="1138642142" departPos='random' departSpeed='max' type="passenger"/>
    <flow id="passenger.41" begin="0" end="1" period="201" from="1138642147" departPos='random' departSpeed='max' type="passenger"/>
    <flow id="passenger.42" begin="0" end="1" period="201" from="1138642111" departPos='random' departSpeed='max' type="passenger"/>
    <flow id="passenger.43" begin="0" end="1" period="201" from="981502363" departPos='random' departSpeed='max' type="passenger"/>
    <flow id="passenger.44" begin="0" end="1" period="201" from="1138642052" departPos='random' departSpeed='max' type="passenger"/>
    <flow id="passenger.45" begin="0" end="1" period="201" from="1138642055" departPos='random' departSpeed='max' type="passenger"/>
    <flow id="passenger.46" begin="0" end="1" period="201" from="1138642186" departPos='random' departSpeed='max' type="passenger"/>
    <flow id="passenger.47" begin="0" end="1" period="201" from="1138642041" departPos='random' departSpeed='max' type="passenger"/>
    <flow id="passenger.48" begin="0" end="1" period="201" from="981502363" departPos='random' departSpeed='max' type="passenger"/>
    <flow id="passenger.49" begin="0" end="1" period="201" from="901349612" departPos='random' departSpeed='max' type="passenger"/>
    <flow id="passenger.50" begin="0" end="1" period="201" from="-11476" departPos='random' departSpeed='max' type="passenger"/>
    <flow id="passenger.51" begin="0" end="1" period="201" from="1138642165" departPos='random' departSpeed='max' type="passenger"/>
    <flow id="passenger.52" begin="0" end="1" period="201" from="1138642086" departPos='random' departSpeed='max' type="passenger"/>
    <flow id="passenger.53" begin="0" end="1" period="201" from="1138642056" departPos='random' departSpeed='max' type="passenger"/>
    <flow id="passenger.54" begin="0" end="1" period="201" from="1138642122" departPos='random' departSpeed='max' type="passenger"/>
    <flow id="passenger.55" begin="0" end="1" period="201" from="1138642202" departPos='random' departSpeed='max' type="passenger"/>
    <flow id="passenger.56" begin="0" end="1" period="201" from="1138642131" departPos='random' departSpeed='max' type="passenger"/>
    <flow id="passenger.57" begin="0" end="1" period="201" from="5676884" departPos='random' departSpeed='max' type="passenger"/>
    <flow id="passenger.58" begin="0" end="1" period="201" from="1138642092" departPos='random' departSpeed='max' type="passenger"/>
    <flow id="passenger.59" begin="0" end="1" period="201" from="1138642151" departPos='random' departSpeed='max' type="passenger"/>
    <flow id="passenger.60" begin="0" end="1" period="201" from="1138642180" departPos='random' departSpeed='max' type="passenger"/>
    <flow id="passenger.61" begin="0" end="1" period="201" from="1138642183" departPos='random' departSpeed='max' type="passenger"/>
    <flow id="passenger.62" begin="0" end="1" period="201" from="-1138160503" departPos='random' departSpeed='max' type="passenger"/>
    <flow id="passenger.63" begin="0" end="1" period="201" from="-222247159" departPos='random' departSpeed='max' type="passenger"/>
    <flow id="passenger.64" begin="0" end="1" period="201" from="1138642202" departPos='random' departSpeed='max' type="passenger"/>
    <flow id="passenger.65" begin="0" end="1" period="201" from="1138642094" departPos='random' departSpeed='max' type="passenger"/>
    <flow id="passenger.66" begin="0" end="1" period="201" from="1138642202" departPos='random' departSpeed='max' type="passenger"/>
    <flow id="passenger.67" begin="0" end="1" period="201" from="1138642051" departPos='random' departSpeed='max' type="passenger"/>
    <flow id="passenger.68" begin="0" end="1" period="201" from="1138642048" departPos='random' departSpeed='max' type="passenger"/>
    <flow id="passenger.69" begin="0" end="1" period="201" from="1138642181" departPos='random' departSpeed='max' type="passenger"/>
    <flow id="passenger.70" begin="0" end="1" period="201" from="1138642126" departPos='random' departSpeed='max' type="passenger"/>
    <flow id="passenger.71" begin="0" end="1" period="201" from="1138642086" departPos='random' departSpeed='max' type="passenger"/>
    <flow id="passenger.72" begin="0" end="1" period="201" from="1138642116" departPos='random' departSpeed='max' type="passenger"/>
    <flow id="passenger.73" begin="0" end="1" period="201" from="1138642138" departPos='random' departSpeed='max' type="passenger"/>
    <flow id="passenger.74" begin="0" end="1" period="201" from="1138642074" departPos='random' departSpeed='max' type="passenger"/>
    <flow id="passenger.75" begin="0" end="1" period="201" from="981502363" departPos='random' departSpeed='max' type="passenger"/>
    <flow id="passenger.76" begin="0" end="1" period="201" from="1138642119" departPos='random' departSpeed='max' type="passenger"/>
    <flow id="passenger.77" begin="0" end="1" period="201" from="1138642057" departPos='random' departSpeed='max' type="passenger"/>
    <flow id="passenger.78" begin="0" end="1" period="201" from="1138642100" departPos='random' departSpeed='max' type="passenger"/>
    <flow id="passenger.79" begin="0" end="1" period="201" from="1138642079" departPos='random' departSpeed='max' type="passenger"/>
    <flow id="passenger.80" begin="0" end="1" period="201" from="1138642048" departPos='random' departSpeed='max' type="passenger"/>
    <flow id="passenger.81" begin="0" end="1" period="201" from="1138642079" departPos='random' departSpeed='max' type="passenger"/>
    <flow id="passenger.82" begin="0" end="1" period="201" from="1138642199" departPos='random' departSpeed='max' type="passenger"/>
    <flow id="passenger.83" begin="0" end="1" period="201" from="1138642081" departPos='random' departSpeed='max' type="passenger"/>
    <flow id="passenger.84" begin="0" end="1" period="201" from="1138642076" departPos='random' departSpeed='max' type="passenger"/>
    <flow id="passenger.85" begin="0" end="1" period="201" from="5681207" departPos='random' departSpeed='max' type="passenger"/>
    <flow id="passenger.86" begin="0" end="1" period="201" from="1138642125" departPos='random' departSpeed='max' type="passenger"/>
    <flow id="passenger.87" begin="0" end="1" period="201" from="1138642189" departPos='random' departSpeed='max' type="passenger"/>
    <flow id="passenger.88" begin="0" end="1" period="201" from="1138642053" departPos='random' departSpeed='max' type="passenger"/>
    <flow id="passenger.89" begin="0" end="1" period="201" from="1138642116" departPos='random' departSpeed='max' type="passenger"/>
    <flow id="passenger.90" begin="0" end="1" period="201" from="1138642174" departPos='random' departSpeed='max' type="passenger"/>
    <flow id="passenger.91" begin="0" end="1" period="201" from="954657728" departPos='random' departSpeed='max' type="passenger"/>
    <flow id="passenger.92" begin="0" end="1" period="201" from="1138642112" departPos='random' departSpeed='max' type="passenger"/>
    <flow id="passenger.93" begin="0" end="1" period="201" from="1138642199" departPos='random' departSpeed='max' type="passenger"/>
    <flow id="passenger.94" begin="0" end="1" period="201" from="1138642072" departPos='random' departSpeed='max' type="passenger"/>
    <flow id="passenger.95" begin="0" end="1" period="201" from="1138642116" departPos='random' departSpeed='max' type="passenger"/>
    <flow id="passenger.96" begin="0" end="1" period="201" from="1138642083" departPos='random' departSpeed='max' type="passenger"/>
    <flow id="passenger.97" begin="0" end="1" period="201" from="1138642120" departPos='random' departSpeed='max' type="passenger"/>
    <flow id="passenger.98" begin="0" end="1" period="201" from="1138642140" departPos='random' departSpeed='max' type="passenger"/>
    <flow id="passenger.99" begin="0" end="1" period="201" from="981502363" departPos='random' departSpeed='max' type="passenger"/>
    <flow id="passenger.100" begin="0" end="1" period="201" from="901349612" departPos='random' departSpeed='max' type="passenger"/>
    <flow id="passenger.101" begin="0" end="1" period="201" from="1138642197" departPos='random' departSpeed='max' type="passenger"/>
    <flow id="passenger.102" begin="0" end="1" period="201" from="1138642128" departPos='random' departSpeed='max' type="passenger"/>
    <flow id="passenger.103" begin="0" end="1" period="201" from="1138642112" departPos='random' departSpeed='max' type="passenger"/>
    <flow id="passenger.104" begin="0" end="1" period="201" from="1138642108" departPos='random' departSpeed='max' type="passenger"/>
    <flow id="passenger.105" begin="0" end="1" period="201" from="1138642086" departPos='random' departSpeed='max' type="passenger"/>
    <flow id="passenger.106" begin="0" end="1" period="201" from="1138642122" departPos='random' departSpeed='max' type="passenger"/>
    <flow id="passenger.107" begin="0" end="1" period="201" from="618977200" departPos='random' departSpeed='max' type="passenger"/>
    <flow id="passenger.108" begin="0" end="1" period="201" from="1138642141" departPos='random' departSpeed='max' type="passenger"/>
    <flow id="passenger.109" begin="0" end="1" period="201" from="1138642064" departPos='random' departSpeed='max' type="passenger"/>
    <flow id="passenger.110" begin="0" end="1" period="201" from="901349612" departPos='random' departSpeed='max' type="passenger"/>
    <flow id="passenger.111" begin="0" end="1" period="201" from="1138642139" departPos='random' departSpeed='max' type="passenger"/>
    <flow id="passenger.112" begin="0" end="1" period="201" from="1122215707" departPos='random' departSpeed='max' type="passenger"/>
    <flow id="passenger.113" begin="0" end="1" period="201" from="1138642131" departPos='random' departSpeed='max' type="passenger"/>
    <flow id="passenger.114" begin="0" end="1" period="201" from="1138642064" departPos='random' departSpeed='max' type="passenger"/>
    <flow id="passenger.115" begin="0" end="1" period="201" from="1138642050" departPos='random' departSpeed='max' type="passenger"/>
    <flow id="passenger.116" begin="0" end="1" period="201" from="1138642149" departPos='random' departSpeed='max' type="passenger"/>
    <flow id="passenger.117" begin="0" end="1" period="201" from="1138642080" departPos='random' departSpeed='max' type="passenger"/>
    <flow id="passenger.118" begin="0" end="1" period="201" from="221696379" departPos='random' departSpeed='max' type="passenger"/>
    <flow id="passenger.119" begin="0" end="1" period="201" from="1138642148" departPos='random' departSpeed='max' type="passenger"/>
    <flow id="passenger.120" begin="0" end="1" period="201" from="1138642115" departPos='random' departSpeed='max' type="passenger"/>
    <flow id="passenger.121" begin="0" end="1" period="201" from="1138642135" departPos='random' departSpeed='max' type="passenger"/>
    <flow id="passenger.122" begin="0" end="1" period="201" from="1138642074" departPos='random' departSpeed='max' type="passenger"/>
    <flow id="passenger.123" begin="0" end="1" period="201" from="1138642081" departPos='random' departSpeed='max' type="passenger"/>
    <flow id="passenger.124" begin="0" end="1" period="201" from="1138642163" departPos='random' departSpeed='max' type="passenger"/>
    <flow id="passenger.125" begin="0" end="1" period="201" from="1138642096" departPos='random' departSpeed='max' type="passenger"/>
    <flow id="passenger.126" begin="0" end="1" period="201" from="1138642048" departPos='random' departSpeed='max' type="passenger"/>
    <flow id="passenger.127" begin="0" end="1" period="201" from="981502363" departPos='random' departSpeed='max' type="passenger"/>
    <flow id="passenger.128" begin="0" end="1" period="201" from="1138642048" departPos='random' departSpeed='max' type="passenger"/>
    <flow id="passenger.129" begin="0" end="1" period="201" from="1138642086" departPos='random' departSpeed='max' type="passenger"/>
    <flow id="passenger.130" begin="0" end="1" period="201" from="1138642203" departPos='random' departSpeed='max' type="passenger"/>
    <flow id="passenger.131" begin="0" end="1" period="201" from="1138642106" departPos='random' departSpeed='max' type="passenger"/>
    <flow id="passenger.132" begin="0" end="1" period="201" from="1138642194" departPos='random' departSpeed='max' type="passenger"/>
    <flow id="passenger.133" begin="0" end="1" period="201" from="1138642152" departPos='random' departSpeed='max' type="passenger"/>
    <flow id="passenger.134" begin="0" end="1" period="201" from="1138642160" departPos='random' departSpeed='max' type="passenger"/>
    <flow id="passenger.135" begin="0" end="1" period="201" from="1138642191" departPos='random' departSpeed='max' type="passenger"/>
    <flow id="passenger.136" begin="0" end="1" period="201" from="1138642162" departPos='random' departSpeed='max' type="passenger"/>
    <flow id="passenger.137" begin="0" end="1" period="201" from="1138642060" departPos='random' departSpeed='max' type="passenger"/>
    <flow id="passenger.138" begin="0" end="1" period="201" from="1138642055" departPos='random' departSpeed='max' type="passenger"/>
    <flow id="passenger.139" begin="0" end="1" period="201" from="1138642087" departPos='random' departSpeed='max' type="passenger"/>
    <flow id="passenger.140" begin="0" end="1" period="201" from="1138642172" departPos='random' departSpeed='max' type="passenger"/>
    <flow id="passenger.141" begin="0" end="1" period="201" from="1138642156" departPos='random' departSpeed='max' type="passenger"/>
    <flow id="passenger.142" begin="0" end="1" period="201" from="1138642128" departPos='random' departSpeed='max' type="passenger"/>
    <flow id="passenger.143" begin="0" end="1" period="201" from="1138642196" departPos='random' departSpeed='max' type="passenger"/>
    <flow id="passenger.144" begin="0" end="1" period="201" from="1138642116" departPos='random' departSpeed='max' type="passenger"/>
    <flow id="passenger.145" begin="0" end="1" period="201" from="-1138160503" departPos='random' departSpeed='max' type="passenger"/>
    <flow id="passenger.146" begin="0" end="1" period="201" from="1138642157" departPos='random' departSpeed='max' type="passenger"/>
    <flow id="passenger.147" begin="0" end="1" period="201" from="1138642176" departPos='random' departSpeed='max' type="passenger"/>
    <flow id="passenger.148" begin="0" end="1" period="201" from="1138642117" departPos='random' departSpeed='max' type="passenger"/>
    <flow id="passenger.149" begin="0" end="1" period="201" from="1138642049" departPos='random' departSpeed='max' type="passenger"/>
    <flow id="passenger.150" begin="0" end="1" period="201" from="222247159" departPos='random' departSpeed='max' type="passenger"/>
    <flow id="passenger.151" begin="0" end="1" period="201" from="1138642194" departPos='random' departSpeed='max' type="passenger"/>
    <flow id="passenger.152" begin="0" end="1" period="201" from="1138642063" departPos='random' departSpeed='max' type="passenger"/>
    <flow id="passenger.153" begin="0" end="1" period="201" from="1138642094" departPos='random' departSpeed='max' type="passenger"/>
    <flow id="passenger.154" begin="0" end="1" period="201" from="1138642187" departPos='random' departSpeed='max' type="passenger"/>
    <flow id="passenger.155" begin="0" end="1" period="201" from="221696385" departPos='random' departSpeed='max' type="passenger"/>
    <flow id="passenger.156" begin="0" end="1" period="201" from="1138642083" departPos='random' departSpeed='max' type="passenger"/>
    <flow id="passenger.157" begin="0" end="1" period="201" from="1138642184" departPos='random' departSpeed='max' type="passenger"/>
    <flow id="passenger.158" begin="0" end="1" period="201" from="1138642113" departPos='random' departSpeed='max' type="passenger"/>
    <flow id="passenger.159" begin="0" end="1" period="201" from="1138642064" departPos='random' departSpeed='max' type="passenger"/>
    <flow id="passenger.160" begin="0" end="1" period="201" from="1138642200" departPos='random' departSpeed='max' type="passenger"/>
    <flow id="passenger.161" begin="0" end="1" period="201" from="1138642190" departPos='random' departSpeed='max' type="passenger"/>
    <flow id="passenger.162" begin="0" end="1" period="201" from="-5674514" departPos='random' departSpeed='max' type="passenger"/>
    <flow id="passenger.163" begin="0" end="1" period="201" from="1138642099" departPos='random' departSpeed='max' type="passenger"/>
    <flow id="passenger.164" begin="0" end="1" period="201" from="1138642188" departPos='random' departSpeed='max' type="passenger"/>
    <flow id="passenger.165" begin="0" end="1" period="201" from="1138642190" departPos='random' departSpeed='max' type="passenger"/>
    <flow id="passenger.166" begin="0" end="1" period="201" from="1138642185" departPos='random' departSpeed='max' type="passenger"/>
    <flow id="passenger.167" begin="0" end="1" period="201" from="1138642201" departPos='random' departSpeed='max' type="passenger"/>
    <flow id="passenger.168" begin="0" end="1" period="201" from="1138642078" departPos='random' departSpeed='max' type="passenger"/>
    <flow id="passenger.169" begin="0" end="1" period="201" from="1138642123" departPos='random' departSpeed='max' type="passenger"/>
    <flow id="passenger.170" begin="0" end="1" period="201" from="1138642187" departPos='random' departSpeed='max' type="passenger"/>
    <flow id="passenger.171" begin="0" end="1" period="201" from="-5674514" departPos='random' departSpeed='max' type="passenger"/>
    <flow id="passenger.172" begin="0" end="1" period="201" from="1138642098" departPos='random' departSpeed='max' type="passenger"/>
    <flow id="passenger.173" begin="0" end="1" period="201" from="817722190" departPos='random' departSpeed='max' type="passenger"/>
    <flow id="passenger.174" begin="0" end="1" period="201" from="1138642157" departPos='random' departSpeed='max' type="passenger"/>
    <flow id="passenger.175" begin="0" end="1" period="201" from="954657728" departPos='random' departSpeed='max' type="passenger"/>
    <flow id="passenger.176" begin="0" end="1" period="201" from="587067519" departPos='random' departSpeed='max' type="passenger"/>
    <flow id="passenger.177" begin="0" end="1" period="201" from="901349612" departPos='random' departSpeed='max' type="passenger"/>
    <flow id="passenger.178" begin="0" end="1" period="201" from="618977203" departPos='random' departSpeed='max' type="passenger"/>
    <flow id="passenger.179" begin="0" end="1" period="201" from="1138642055" departPos='random' departSpeed='max' type="passenger"/>
    <flow id="passenger.180" begin="0" end="1" period="201" from="1138642174" departPos='random' departSpeed='max' type="passenger"/>
    <flow id="passenger.181" begin="0" end="1" period="201" from="1138642151" departPos='random' departSpeed='max' type="passenger"/>
    <flow id="passenger.182" begin="0" end="1" period="201" from="1138642109" departPos='random' departSpeed='max' type="passenger"/>
    <flow id="passenger.183" begin="0" end="1" period="201" from="1138642084" departPos='random' departSpeed='max' type="passenger"/>
    <flow id="passenger.184" begin="0" end="1" period="201" from="-1138160503" departPos='random' departSpeed='max' type="passenger"/>
    <flow id="passenger.185" begin="0" end="1" period="201" from="1138642138" departPos='random' departSpeed='max' type="passenger"/>
    <flow id="passenger.186" begin="0" end="1" period="201" from="1138642176" departPos='random' departSpeed='max' type="passenger"/>
    <flow id="passenger.187" begin="0" end="1" period="201" from="1138642105" departPos='random' departSpeed='max' type="passenger"/>
    <flow id="passenger.188" begin="0" end="1" period="201" from="1138642162" departPos='random' departSpeed='max' type="passenger"/>
    <flow id="passenger.189" begin="0" end="1" period="201" from="1138642095" departPos='random' departSpeed='max' type="passenger"/>
    <flow id="passenger.190" begin="0" end="1" period="201" from="1138642172" departPos='random' departSpeed='max' type="passenger"/>
    <flow id="passenger.191" begin="0" end="1" period="201" from="1138642094" departPos='random' departSpeed='max' type="passenger"/>
    <flow id="passenger.192" begin="0" end="1" period="201" from="1138642112" departPos='random' departSpeed='max' type="passenger"/>
    <flow id="passenger.193" begin="0" end="1" period="201" from="1138642059" departPos='random' departSpeed='max' type="passenger"/>
    <flow id="passenger.194" begin="0" end="1" period="201" from="587067519" departPos='random' departSpeed='max' type="passenger"/>
    <flow id="passenger.195" begin="0" end="1" period="201" from="222247159" departPos='random' departSpeed='max' type="passenger"/>
    <flow id="passenger.196" begin="0" end="1" period="201" from="1138642093" departPos='random' departSpeed='max' type="passenger"/>
    <flow id="passenger.197" begin="0" end="1" period="201" from="-1138160503" departPos='random' departSpeed='max' type="passenger"/>
    <flow id="passenger.198" begin="0" end="1" period="201" from="1138642117" departPos='random' departSpeed='max' type="passenger"/>
    <flow id="passenger.199" begin="0" end="1" period="201" from="1138642160" departPos='random' departSpeed='max' type="passenger"/>
    <flow id="passenger.200" begin="0" end="1" period="201" from="1138642120" departPos='random' departSpeed='max' type="passenger"/>
</routes>
