<?xml version="1.0" encoding="UTF-8"?>

<!-- generated on 2025-01-14 17:55:47 by Eclipse SUMO netconvert Version 1.16.0
<configuration xmlns:xsi="http://www.w3.org/2001/XMLSchema-instance" xsi:noNamespaceSchemaLocation="http://sumo.dlr.de/xsd/netconvertConfiguration.xsd">

    <input>
        <osm-files value="h:\TRANSIT\bin/../inputs//streets.osm"/>
    </input>

    <output>
        <output-file value="h:\TRANSIT\bin/../models/real_world_streets/road.net.xml"/>
    </output>

    <projection>
        <proj.utm value="true"/>
    </projection>

    <processing>
        <plain.extend-edge-shape value="true"/>
        <numerical-ids value="true"/>
        <dismiss-vclasses value="true"/>
    </processing>

    <building_defaults>
        <default.junctions.keep-clear value="true"/>
    </building_defaults>

    <tls_building>
        <tls.guess value="true"/>
        <tls.guess-signals value="true"/>
    </tls_building>

    <edge_removal>
        <keep-edges.by-type value="highway.motorway,highway.trunk,highway.primary,highway.secondary,highway.tertiary,highway.residential,highway.motorway_link"/>
    </edge_removal>

    <junctions>
        <no-turnarounds value="true"/>
        <no-turnarounds.except-deadend value="true"/>
        <no-turnarounds.except-turnlane value="true"/>
        <junctions.join value="true"/>
        <junctions.join-dist value="30"/>
        <junctions.join-same value="true"/>
    </junctions>

</configuration>
-->

<net version="1.16" junctionCornerDetail="5" limitTurnSpeed="5.50" xmlns:xsi="http://www.w3.org/2001/XMLSchema-instance" xsi:noNamespaceSchemaLocation="http://sumo.dlr.de/xsd/net_file.xsd">

    <location netOffset="-587356.88,-4503832.34" convBoundary="0.00,0.00,1090.68,1138.09" origBoundary="-73.966568,40.680175,-73.953312,40.690908" projParameter="+proj=utm +zone=18 +ellps=WGS84 +datum=WGS84 +units=m +no_defs"/>

    <type id="highway.bridleway" priority="1" numLanes="1" speed="2.78" allow="pedestrian" oneway="1" width="2.00"/>
    <type id="highway.bus_guideway" priority="1" numLanes="1" speed="27.78" allow="bus" oneway="1"/>
    <type id="highway.cycleway" priority="1" numLanes="1" speed="5.56" allow="bicycle" oneway="0" width="1.00"/>
    <type id="highway.footway" priority="1" numLanes="1" speed="2.78" allow="pedestrian" oneway="1" width="2.00"/>
    <type id="highway.ford" priority="1" numLanes="1" speed="2.78" allow="army" oneway="0"/>
    <type id="highway.living_street" priority="2" numLanes="1" speed="2.78" disallow="tram rail_urban rail rail_electric rail_fast ship" oneway="0"/>
    <type id="highway.motorway" priority="14" numLanes="2" speed="39.44" allow="private emergency authority army vip passenger hov taxi bus coach delivery truck trailer motorcycle evehicle custom1 custom2" oneway="1"/>
    <type id="highway.motorway_link" priority="9" numLanes="1" speed="22.22" allow="private emergency authority army vip passenger hov taxi bus coach delivery truck trailer motorcycle evehicle custom1 custom2" oneway="1"/>
    <type id="highway.path" priority="1" numLanes="1" speed="5.56" allow="pedestrian bicycle" oneway="0" width="2.00"/>
    <type id="highway.pedestrian" priority="1" numLanes="1" speed="2.78" allow="pedestrian" oneway="1" width="2.00"/>
    <type id="highway.primary" priority="12" numLanes="2" speed="27.78" disallow="tram rail_urban rail rail_electric rail_fast ship" oneway="0"/>
    <type id="highway.primary_link" priority="7" numLanes="1" speed="22.22" disallow="tram rail_urban rail rail_electric rail_fast ship" oneway="0"/>
    <type id="highway.raceway" priority="15" numLanes="2" speed="83.33" allow="vip" oneway="0"/>
    <type id="highway.residential" priority="3" numLanes="1" speed="13.89" disallow="tram rail_urban rail rail_electric rail_fast ship" oneway="0"/>
    <type id="highway.secondary" priority="11" numLanes="1" speed="27.78" disallow="tram rail_urban rail rail_electric rail_fast ship" oneway="0"/>
    <type id="highway.secondary_link" priority="6" numLanes="1" speed="22.22" disallow="tram rail_urban rail rail_electric rail_fast ship" oneway="0"/>
    <type id="highway.service" priority="1" numLanes="1" speed="5.56" allow="pedestrian delivery bicycle" oneway="0"/>
    <type id="highway.stairs" priority="1" numLanes="1" speed="1.39" allow="pedestrian" oneway="1" width="2.00"/>
    <type id="highway.step" priority="1" numLanes="1" speed="1.39" allow="pedestrian" oneway="1" width="2.00"/>
    <type id="highway.steps" priority="1" numLanes="1" speed="1.39" allow="pedestrian" oneway="1" width="2.00"/>
    <type id="highway.tertiary" priority="10" numLanes="1" speed="22.22" disallow="tram rail_urban rail rail_electric rail_fast ship" oneway="0"/>
    <type id="highway.tertiary_link" priority="5" numLanes="1" speed="22.22" disallow="tram rail_urban rail rail_electric rail_fast ship" oneway="0"/>
    <type id="highway.track" priority="1" numLanes="1" speed="5.56" allow="pedestrian motorcycle moped bicycle" oneway="0"/>
    <type id="highway.trunk" priority="13" numLanes="2" speed="27.78" disallow="pedestrian bicycle tram rail_urban rail rail_electric rail_fast ship" oneway="0"/>
    <type id="highway.trunk_link" priority="8" numLanes="1" speed="22.22" disallow="pedestrian bicycle tram rail_urban rail rail_electric rail_fast ship" oneway="0"/>
    <type id="highway.unclassified" priority="4" numLanes="1" speed="13.89" disallow="tram rail_urban rail rail_electric rail_fast ship" oneway="0"/>
    <type id="highway.unsurfaced" priority="1" numLanes="1" speed="8.33" disallow="tram rail_urban rail rail_electric rail_fast ship" oneway="0"/>
    <type id="railway.highspeed" priority="21" numLanes="1" speed="69.44" allow="rail_fast" oneway="1"/>
    <type id="railway.light_rail" priority="19" numLanes="1" speed="27.78" allow="rail_urban" oneway="1"/>
    <type id="railway.preserved" priority="16" numLanes="1" speed="27.78" allow="rail" oneway="1"/>
    <type id="railway.rail" priority="20" numLanes="1" speed="44.44" allow="rail" oneway="1"/>
    <type id="railway.subway" priority="18" numLanes="1" speed="27.78" allow="rail_urban" oneway="1"/>
    <type id="railway.tram" priority="17" numLanes="1" speed="13.89" allow="tram" oneway="1"/>

    <edge id=":10264251084_0" function="internal">
        <lane id=":10264251084_0_0" index="0" speed="13.89" length="8.21" shape="98.67,895.91 98.80,893.51 98.52,891.84 98.23,890.17 98.37,887.76"/>
        <lane id=":10264251084_0_1" index="1" speed="13.89" length="8.21" shape="98.67,895.91 99.30,893.59 100.10,892.09 100.90,890.60 101.53,888.27"/>
    </edge>
    <edge id=":10609155822_0" function="internal">
        <lane id=":10609155822_0_0" index="0" speed="11.18" length="0.31" shape="996.12,322.11 995.81,322.06"/>
    </edge>
    <edge id=":10609155822_1" function="internal">
        <lane id=":10609155822_1_0" index="0" speed="11.18" length="0.29" shape="996.34,318.90 996.62,318.95"/>
    </edge>
    <edge id=":10609155823_0" function="internal">
        <lane id=":10609155823_0_0" index="0" speed="5.73" length="9.18" shape="746.73,944.95 749.46,945.04 751.12,944.20 751.73,942.43 751.28,939.75"/>
        <lane id=":10609155823_0_1" index="1" speed="7.12" length="11.20" shape="746.73,944.95 749.67,944.98 751.91,943.97 753.47,941.91 754.34,938.81"/>
    </edge>
    <edge id=":10609155823_2" function="internal">
        <lane id=":10609155823_2_0" index="0" speed="11.18" length="34.44" shape="746.73,944.95 780.76,950.18"/>
        <lane id=":10609155823_2_1" index="1" speed="11.18" length="34.44" shape="746.20,948.11 780.25,953.34"/>
    </edge>
    <edge id=":10609155823_4" function="internal">
        <lane id=":10609155823_4_0" index="0" speed="6.65" length="9.40" shape="773.72,958.40 774.51,955.85 775.86,954.16 777.77,953.32 780.25,953.34"/>
    </edge>
    <edge id=":2484497662_0" function="internal">
        <lane id=":2484497662_0_0" index="0" speed="11.18" length="0.10" shape="167.07,850.85 167.07,850.85"/>
    </edge>
    <edge id=":2484497664_0" function="internal">
        <lane id=":2484497664_0_0" index="0" speed="11.18" length="0.10" shape="247.63,864.10 247.63,864.10"/>
    </edge>
    <edge id=":2484497668_0" function="internal">
        <lane id=":2484497668_0_0" index="0" speed="11.18" length="0.30" shape="214.34,1025.49 214.05,1025.44"/>
    </edge>
    <edge id=":2484497669_0" function="internal">
        <lane id=":2484497669_0_0" index="0" speed="11.18" length="0.10" shape="355.27,881.73 355.27,881.73"/>
    </edge>
    <edge id=":3564527622_0" function="internal">
        <lane id=":3564527622_0_0" index="0" speed="27.78" length="0.30" shape="883.71,57.02 883.43,57.09"/>
    </edge>
    <edge id=":3564527622_1" function="internal">
        <lane id=":3564527622_1_0" index="0" speed="27.78" length="0.30" shape="882.61,54.00 882.90,53.92"/>
    </edge>
    <edge id=":42464557_0" function="internal">
        <lane id=":42464557_0_0" index="0" speed="6.08" length="7.74" shape="416.56,559.37 414.54,558.73 413.21,557.60 412.56,555.97 412.60,553.86"/>
    </edge>
    <edge id=":42464557_1" function="internal">
        <lane id=":42464557_1_0" index="0" speed="3.90" length="2.58" shape="415.76,554.37 415.75,555.08 415.96,555.62 416.41,556.00 417.08,556.21"/>
    </edge>
    <edge id=":42464560_0" function="internal">
        <lane id=":42464560_0_0" index="0" speed="6.53" length="9.06" shape="433.76,479.36 431.28,479.31 429.38,480.07 428.06,481.63 427.30,484.01"/>
    </edge>
    <edge id=":42464560_1" function="internal">
        <lane id=":42464560_1_0" index="0" speed="8.94" length="14.40" shape="433.76,479.36 419.55,477.04"/>
    </edge>
    <edge id=":42464560_2" function="internal">
        <lane id=":42464560_2_0" index="0" speed="7.66" length="12.91" shape="433.76,479.36 430.74,478.31 428.80,476.32 427.91,473.39 428.10,469.52"/>
    </edge>
    <edge id=":42464560_3" function="internal">
        <lane id=":42464560_3_0" index="0" speed="6.93" length="10.37" shape="420.06,473.88 423.24,474.04 425.63,473.37 427.25,471.86 428.10,469.52"/>
    </edge>
    <edge id=":42464560_4" function="internal">
        <lane id=":42464560_4_0" index="0" speed="8.94" length="14.40" shape="420.06,473.88 434.27,476.20"/>
    </edge>
    <edge id=":42464560_5" function="internal">
        <lane id=":42464560_5_0" index="0" speed="7.99" length="14.21" shape="420.06,473.88 423.78,475.05 426.23,477.12 427.40,480.11 427.30,484.01"/>
    </edge>
    <edge id=":42464560_6" function="internal">
        <lane id=":42464560_6_0" index="0" speed="6.50" length="9.03" shape="424.15,483.47 424.21,481.00 423.46,479.10 421.91,477.78 419.55,477.04"/>
    </edge>
    <edge id=":42464560_7" function="internal">
        <lane id=":42464560_7_0" index="0" speed="8.94" length="14.52" shape="424.15,483.47 425.00,479.91 426.13,476.50 427.25,473.09 428.10,469.52"/>
    </edge>
    <edge id=":42464560_8" function="internal">
        <lane id=":42464560_8_0" index="0" speed="8.02" length="14.20" shape="424.15,483.47 425.33,479.76 427.41,477.31 430.39,476.12 434.27,476.20"/>
    </edge>
    <edge id=":42464562_0" function="internal">
        <lane id=":42464562_0_0" index="0" speed="8.94" length="11.27" shape="472.11,235.93 460.99,234.09"/>
    </edge>
    <edge id=":42464562_1" function="internal">
        <lane id=":42464562_1_0" index="0" speed="7.37" length="2.52" shape="472.11,235.93 469.77,234.99"/>
    </edge>
    <edge id=":42464562_7" function="internal">
        <lane id=":42464562_7_0" index="0" speed="7.37" length="9.26" shape="469.77,234.99 468.29,233.07 467.67,230.17 467.91,226.30"/>
    </edge>
    <edge id=":42464562_2" function="internal">
        <lane id=":42464562_2_0" index="0" speed="6.48" length="9.03" shape="461.52,230.94 463.99,230.99 465.89,230.24 467.19,228.67 467.91,226.30"/>
    </edge>
    <edge id=":42464562_3" function="internal">
        <lane id=":42464562_3_0" index="0" speed="8.94" length="11.27" shape="461.52,230.94 472.63,232.77"/>
    </edge>
    <edge id=":42464562_4" function="internal">
        <lane id=":42464562_4_0" index="0" speed="6.55" length="9.11" shape="465.71,240.56 465.74,238.08 464.96,236.17 463.38,234.84 460.99,234.09"/>
    </edge>
    <edge id=":42464562_5" function="internal">
        <lane id=":42464562_5_0" index="0" speed="8.94" length="14.43" shape="465.71,240.56 467.91,226.30"/>
    </edge>
    <edge id=":42464562_6" function="internal">
        <lane id=":42464562_6_0" index="0" speed="7.31" length="11.74" shape="465.71,240.56 466.65,236.81 468.12,234.26 470.11,232.92 472.63,232.77"/>
    </edge>
    <edge id=":42464564_0" function="internal">
        <lane id=":42464564_0_0" index="0" speed="27.78" length="8.73" shape="471.99,161.96 480.43,159.74"/>
        <lane id=":42464564_0_1" index="1" speed="27.78" length="8.73" shape="472.80,165.05 481.24,162.83"/>
    </edge>
    <edge id=":42464564_2" function="internal">
        <lane id=":42464564_2_0" index="0" speed="7.22" length="7.79" shape="476.91,168.77 477.48,166.52 478.39,164.78 479.65,163.55 481.24,162.83"/>
    </edge>
    <edge id=":42464938_0" function="internal">
        <lane id=":42464938_0_0" index="0" speed="7.44" length="8.22" shape="121.09,258.59 121.70,256.53 122.77,254.89 124.30,253.67 126.30,252.87"/>
        <lane id=":42464938_0_1" index="1" speed="6.77" length="6.69" shape="121.09,258.59 121.53,258.02 122.69,257.39 124.55,256.71 127.11,255.97"/>
    </edge>
    <edge id=":42464941_0" function="internal">
        <lane id=":42464941_0_0" index="0" speed="27.78" length="8.67" shape="211.86,230.41 220.24,228.27"/>
        <lane id=":42464941_0_1" index="1" speed="27.78" length="8.67" shape="212.63,233.51 221.05,231.36"/>
    </edge>
    <edge id=":42464941_2" function="internal">
        <lane id=":42464941_2_0" index="0" speed="7.21" length="7.75" shape="216.74,237.26 217.30,235.03 218.20,233.31 219.45,232.08 221.05,231.36"/>
    </edge>
    <edge id=":42464945_0" function="internal">
        <lane id=":42464945_0_0" index="0" speed="27.78" length="11.50" shape="296.86,208.17 307.99,205.26"/>
        <lane id=":42464945_0_1" index="1" speed="27.78" length="11.50" shape="297.67,211.27 308.80,208.35"/>
    </edge>
    <edge id=":42464945_2" function="internal">
        <lane id=":42464945_2_0" index="0" speed="5.79" length="9.15" shape="297.67,211.27 300.34,210.95 302.10,211.63 302.95,213.32 302.88,216.01"/>
    </edge>
    <edge id=":42464948_0" function="internal">
        <lane id=":42464948_0_0" index="0" speed="27.78" length="8.74" shape="385.87,184.54 394.33,182.37"/>
        <lane id=":42464948_0_1" index="1" speed="27.78" length="8.74" shape="386.67,187.64 395.13,185.47"/>
    </edge>
    <edge id=":42464948_2" function="internal">
        <lane id=":42464948_2_0" index="0" speed="7.21" length="7.79" shape="390.79,191.38 391.35,189.14 392.26,187.41 393.52,186.18 395.13,185.47"/>
    </edge>
    <edge id=":42464953_0" function="internal">
        <lane id=":42464953_0_0" index="0" speed="27.78" length="11.50" shape="555.41,140.11 566.54,137.20"/>
        <lane id=":42464953_0_1" index="1" speed="27.78" length="11.50" shape="556.22,143.20 567.35,140.29"/>
    </edge>
    <edge id=":42464953_2" function="internal">
        <lane id=":42464953_2_0" index="0" speed="5.79" length="9.15" shape="556.22,143.20 558.89,142.88 560.65,143.57 561.50,145.25 561.43,147.94"/>
    </edge>
    <edge id=":42464955_0" function="internal">
        <lane id=":42464955_0_0" index="0" speed="7.79" length="9.10" shape="653.23,117.86 651.63,118.66 650.33,120.16 649.34,122.33 648.66,125.19"/>
    </edge>
    <edge id=":42464955_1" function="internal">
        <lane id=":42464955_1_0" index="0" speed="27.78" length="12.20" shape="640.62,117.88 652.41,114.77"/>
    </edge>
    <edge id=":42464955_2" function="internal">
        <lane id=":42464955_2_0" index="0" speed="5.21" length="7.16" shape="641.43,120.97 643.52,120.72 644.90,121.25 645.56,122.57 645.51,124.67"/>
    </edge>
    <edge id=":42464958_0" function="internal">
        <lane id=":42464958_0_0" index="0" speed="8.70" length="11.56" shape="759.32,89.85 757.11,90.90 755.35,92.76 754.05,95.43 753.20,98.91"/>
    </edge>
    <edge id=":42464958_1" function="internal">
        <lane id=":42464958_1_0" index="0" speed="27.78" length="15.00" shape="759.32,89.85 744.82,93.68"/>
    </edge>
    <edge id=":42464958_2" function="internal">
        <lane id=":42464958_2_0" index="0" speed="27.78" length="15.00" shape="744.00,90.59 758.51,86.76"/>
    </edge>
    <edge id=":42464958_3" function="internal">
        <lane id=":42464958_3_0" index="0" speed="7.47" length="4.73" shape="744.00,90.59 748.70,90.02"/>
    </edge>
    <edge id=":42464958_6" function="internal">
        <lane id=":42464958_6_0" index="0" speed="7.47" length="11.38" shape="748.70,90.02 751.80,91.22 753.30,94.18 753.20,98.91"/>
    </edge>
    <edge id=":42464958_4" function="internal">
        <lane id=":42464958_4_0" index="0" speed="5.79" length="9.15" shape="750.04,98.41 750.10,95.72 749.25,94.04 747.49,93.36 744.82,93.68"/>
    </edge>
    <edge id=":42464958_5" function="internal">
        <lane id=":42464958_5_0" index="0" speed="9.93" length="15.26" shape="750.04,98.41 751.16,93.99 752.95,90.58 755.39,88.17 758.51,86.76"/>
    </edge>
    <edge id=":42464960_0" function="internal">
        <lane id=":42464960_0_0" index="0" speed="27.78" length="14.92" shape="902.65,52.02 888.22,55.83"/>
    </edge>
    <edge id=":42464960_1" function="internal">
        <lane id=":42464960_1_0" index="0" speed="27.78" length="14.92" shape="887.40,52.73 901.83,48.93"/>
    </edge>
    <edge id=":42464960_2" function="internal">
        <lane id=":42464960_2_0" index="0" speed="5.83" length="9.14" shape="893.55,60.53 893.53,57.86 892.64,56.19 890.87,55.51 888.22,55.83"/>
    </edge>
    <edge id=":42464960_3" function="internal">
        <lane id=":42464960_3_0" index="0" speed="9.27" length="13.57" shape="896.72,60.96 897.60,56.06 898.74,52.41 900.15,50.04 901.83,48.93"/>
    </edge>
    <edge id=":42464964_0" function="internal">
        <lane id=":42464964_0_0" index="0" speed="27.78" length="11.49" shape="1007.48,24.31 996.38,27.28"/>
    </edge>
    <edge id=":42464964_1" function="internal">
        <lane id=":42464964_1_0" index="0" speed="27.78" length="11.47" shape="995.56,24.19 1006.64,21.23"/>
    </edge>
    <edge id=":42464964_2" function="internal">
        <lane id=":42464964_2_0" index="0" speed="5.79" length="9.15" shape="1001.61,32.00 1001.66,29.32 1000.81,27.64 999.05,26.96 996.38,27.28"/>
    </edge>
    <edge id=":42464964_3" function="internal">
        <lane id=":42464964_3_0" index="0" speed="9.00" length="12.36" shape="1001.61,32.00 1002.51,27.64 1003.65,24.39 1005.02,22.25 1006.64,21.23"/>
    </edge>
    <edge id=":42464967_0" function="internal">
        <lane id=":42464967_0_0" index="0" speed="8.20" length="19.98" shape="1080.53,1.10 1087.21,-0.01 1091.68,0.90 1093.95,3.82 1094.01,8.76"/>
        <lane id=":42464967_0_1" index="1" speed="7.47" length="16.33" shape="1080.53,1.10 1085.73,0.31 1089.19,1.22 1090.90,3.86 1090.86,8.21"/>
        <lane id=":42464967_0_2" index="2" speed="6.67" length="12.74" shape="1080.53,1.10 1084.26,0.62 1086.70,1.55 1087.85,3.89 1087.70,7.65"/>
        <lane id=":42464967_0_3" index="3" speed="5.79" length="9.28" shape="1080.53,1.10 1082.78,0.93 1084.20,1.88 1084.79,3.93 1084.55,7.10"/>
    </edge>
    <edge id=":42466432_0" function="internal">
        <lane id=":42466432_0_0" index="0" speed="11.18" length="11.22" shape="85.62,1004.46 74.55,1002.63"/>
    </edge>
    <edge id=":42466432_1" function="internal">
        <lane id=":42466432_1_0" index="0" speed="6.28" length="9.04" shape="85.62,1004.46 83.22,1003.70 81.73,1002.36 81.15,1000.44 81.47,997.94"/>
    </edge>
    <edge id=":42469369_0" function="internal">
        <lane id=":42469369_0_0" index="0" speed="11.18" length="0.28" shape="637.53,1094.75 637.25,1094.71"/>
    </edge>
    <edge id=":42478390_0" function="internal">
        <lane id=":42478390_0_0" index="0" speed="5.98" length="8.05" shape="4.81,991.08 2.07,990.40 0.25,989.42 -0.66,988.14 -0.65,986.55"/>
    </edge>
    <edge id=":42478396_0" function="internal">
        <lane id=":42478396_0_0" index="0" speed="6.50" length="9.03" shape="30.86,822.81 30.80,825.29 31.55,827.18 33.11,828.50 35.47,829.25"/>
    </edge>
    <edge id=":42478396_1" function="internal">
        <lane id=":42478396_1_0" index="0" speed="27.78" length="11.20" shape="30.86,822.81 29.01,833.85"/>
    </edge>
    <edge id=":42478396_2" function="internal">
        <lane id=":42478396_2_0" index="0" speed="27.78" length="11.19" shape="25.85,833.32 27.70,822.29"/>
    </edge>
    <edge id=":42478396_3" function="internal">
        <lane id=":42478396_3_0" index="0" speed="7.34" length="2.50" shape="25.85,833.32 26.80,831.01"/>
    </edge>
    <edge id=":42478396_4" function="internal">
        <lane id=":42478396_4_0" index="0" speed="7.34" length="9.22" shape="26.80,831.01 28.72,829.55 31.61,828.97 35.47,829.25"/>
    </edge>
    <edge id=":42478400_0" function="internal">
        <lane id=":42478400_0_0" index="0" speed="6.51" length="8.99" shape="62.18,668.26 59.73,668.21 57.85,668.96 56.53,670.52 55.78,672.88"/>
    </edge>
    <edge id=":42478400_1" function="internal">
        <lane id=":42478400_1_0" index="0" speed="7.97" length="14.07" shape="62.18,668.26 58.42,667.10 55.94,665.06 54.73,662.16 54.80,658.38"/>
    </edge>
    <edge id=":42478400_2" function="internal">
        <lane id=":42478400_2_0" index="0" speed="6.48" length="8.94" shape="57.97,658.81 57.93,661.21 58.69,663.06 60.27,664.36 62.65,665.10"/>
    </edge>
    <edge id=":42478400_3" function="internal">
        <lane id=":42478400_3_0" index="0" speed="27.78" length="14.24" shape="57.97,658.81 55.78,672.88"/>
    </edge>
    <edge id=":42478400_4" function="internal">
        <lane id=":42478400_4_0" index="0" speed="27.78" length="14.13" shape="52.62,672.34 54.80,658.38"/>
    </edge>
    <edge id=":42478400_5" function="internal">
        <lane id=":42478400_5_0" index="0" speed="7.99" length="3.89" shape="52.62,672.34 53.80,668.64"/>
    </edge>
    <edge id=":42478400_6" function="internal">
        <lane id=":42478400_6_0" index="0" speed="7.99" length="10.21" shape="53.80,668.64 55.87,666.20 58.82,665.02 62.65,665.10"/>
    </edge>
    <edge id=":42478403_0" function="internal">
        <lane id=":42478403_0_0" index="0" speed="6.51" length="9.03" shape="102.52,424.95 100.05,424.90 98.15,425.65 96.83,427.20 96.08,429.56"/>
    </edge>
    <edge id=":42478403_1" function="internal">
        <lane id=":42478403_1_0" index="0" speed="8.00" length="14.19" shape="102.52,424.95 98.81,423.78 96.37,421.71 95.19,418.72 95.27,414.84"/>
    </edge>
    <edge id=":42478403_2" function="internal">
        <lane id=":42478403_2_0" index="0" speed="6.51" length="9.03" shape="98.43,415.36 98.38,417.83 99.13,419.73 100.68,421.05 103.04,421.80"/>
    </edge>
    <edge id=":42478403_3" function="internal">
        <lane id=":42478403_3_0" index="0" speed="27.78" length="14.40" shape="98.43,415.36 96.08,429.56"/>
    </edge>
    <edge id=":42478403_4" function="internal">
        <lane id=":42478403_4_0" index="0" speed="27.78" length="14.40" shape="92.92,429.04 95.27,414.84"/>
    </edge>
    <edge id=":42478403_5" function="internal">
        <lane id=":42478403_5_0" index="0" speed="8.00" length="4.06" shape="92.92,429.04 94.09,425.33 94.21,425.20"/>
    </edge>
    <edge id=":42478403_6" function="internal">
        <lane id=":42478403_6_0" index="0" speed="8.00" length="10.13" shape="94.21,425.20 96.17,422.89 99.15,421.71 103.04,421.80"/>
    </edge>
    <edge id=":42479649_0" function="internal">
        <lane id=":42479649_0_0" index="0" speed="7.85" length="10.44" shape="106.94,840.99 110.05,841.18 112.60,840.66 114.58,839.44 116.00,837.51"/>
    </edge>
    <edge id=":42479649_1" function="internal">
        <lane id=":42479649_1_0" index="0" speed="11.18" length="12.64" shape="106.94,840.99 119.42,843.02"/>
    </edge>
    <edge id=":42479649_2" function="internal">
        <lane id=":42479649_2_0" index="0" speed="11.42" length="10.96" shape="109.62,846.37 111.38,843.58 112.94,841.81 114.42,840.10 116.00,837.51"/>
    </edge>
    <edge id=":42479649_3" function="internal">
        <lane id=":42479649_3_0" index="0" speed="7.43" length="9.09" shape="112.44,847.88 113.98,845.50 115.66,843.90 117.47,843.07 119.42,843.02"/>
    </edge>
    <edge id=":42479654_0" function="internal">
        <lane id=":42479654_0_0" index="0" speed="6.50" length="9.03" shape="136.87,762.63 134.51,761.89 132.95,760.58 132.19,758.68 132.24,756.21"/>
    </edge>
    <edge id=":42479654_1" function="internal">
        <lane id=":42479654_1_0" index="0" speed="8.94" length="11.19" shape="130.40,767.24 132.24,756.21"/>
    </edge>
    <edge id=":42479658_0" function="internal">
        <lane id=":42479658_0_0" index="0" speed="8.94" length="11.25" shape="149.93,682.71 138.82,680.96"/>
    </edge>
    <edge id=":42479658_1" function="internal">
        <lane id=":42479658_1_0" index="0" speed="7.33" length="2.49" shape="149.93,682.71 147.62,681.78"/>
    </edge>
    <edge id=":42479658_7" function="internal">
        <lane id=":42479658_7_0" index="0" speed="7.33" length="9.22" shape="147.62,681.78 146.17,679.86 145.58,676.98 145.86,673.11"/>
    </edge>
    <edge id=":42479658_2" function="internal">
        <lane id=":42479658_2_0" index="0" speed="6.57" length="9.17" shape="139.30,677.80 141.83,677.83 143.77,677.06 145.11,675.48 145.86,673.11"/>
    </edge>
    <edge id=":42479658_3" function="internal">
        <lane id=":42479658_3_0" index="0" speed="8.94" length="11.29" shape="139.30,677.80 150.45,679.55"/>
    </edge>
    <edge id=":42479658_4" function="internal">
        <lane id=":42479658_4_0" index="0" speed="6.48" length="9.03" shape="143.47,687.35 143.52,684.87 142.76,682.98 141.19,681.68 138.82,680.96"/>
    </edge>
    <edge id=":42479658_5" function="internal">
        <lane id=":42479658_5_0" index="0" speed="8.94" length="14.43" shape="143.47,687.35 145.86,673.11"/>
    </edge>
    <edge id=":42479658_6" function="internal">
        <lane id=":42479658_6_0" index="0" speed="7.34" length="11.77" shape="143.47,687.35 144.44,683.60 145.92,681.05 147.93,679.70 150.45,679.55"/>
    </edge>
    <edge id=":42479660_0" function="internal">
        <lane id=":42479660_0_0" index="0" speed="8.94" length="11.22" shape="189.44,439.28 178.37,437.45"/>
    </edge>
    <edge id=":42479660_1" function="internal">
        <lane id=":42479660_1_0" index="0" speed="7.33" length="2.52" shape="189.44,439.28 187.10,438.34"/>
    </edge>
    <edge id=":42479660_7" function="internal">
        <lane id=":42479660_7_0" index="0" speed="7.33" length="9.22" shape="187.10,438.34 185.64,436.42 185.05,433.54 185.32,429.68"/>
    </edge>
    <edge id=":42479660_2" function="internal">
        <lane id=":42479660_2_0" index="0" speed="6.50" length="9.03" shape="178.89,434.30 181.37,434.35 183.26,433.60 184.58,432.04 185.32,429.68"/>
    </edge>
    <edge id=":42479660_3" function="internal">
        <lane id=":42479660_3_0" index="0" speed="8.94" length="11.21" shape="178.89,434.30 189.96,436.12"/>
    </edge>
    <edge id=":42479660_4" function="internal">
        <lane id=":42479660_4_0" index="0" speed="6.52" length="9.05" shape="183.01,443.90 183.06,441.42 182.30,439.52 180.74,438.20 178.37,437.45"/>
    </edge>
    <edge id=":42479660_5" function="internal">
        <lane id=":42479660_5_0" index="0" speed="8.94" length="14.41" shape="183.01,443.90 185.32,429.68"/>
    </edge>
    <edge id=":42479660_6" function="internal">
        <lane id=":42479660_6_0" index="0" speed="7.32" length="11.73" shape="183.01,443.90 183.97,440.15 185.45,437.61 187.45,436.26 189.96,436.12"/>
    </edge>
    <edge id=":42480153_0" function="internal">
        <lane id=":42480153_0_0" index="0" speed="8.94" length="11.21" shape="510.98,492.02 499.92,490.22"/>
    </edge>
    <edge id=":42480153_1" function="internal">
        <lane id=":42480153_1_0" index="0" speed="6.50" length="9.03" shape="506.87,482.44 506.82,484.91 507.57,486.81 509.13,488.13 511.50,488.86"/>
    </edge>
    <edge id=":42480153_2" function="internal">
        <lane id=":42480153_2_0" index="0" speed="7.33" length="11.72" shape="506.87,482.44 505.90,486.18 504.42,488.73 502.43,490.07 499.92,490.22"/>
    </edge>
    <edge id=":42480153_3" function="internal">
        <lane id=":42480153_3_0" index="0" speed="8.94" length="11.20" shape="500.44,487.06 511.50,488.86"/>
    </edge>
    <edge id=":42480155_0" function="internal">
        <lane id=":42480155_0_0" index="0" speed="6.50" length="9.03" shape="550.73,248.91 548.25,248.85 546.36,249.60 545.04,251.16 544.29,253.52"/>
    </edge>
    <edge id=":42480155_1" function="internal">
        <lane id=":42480155_1_0" index="0" speed="8.94" length="11.23" shape="550.73,248.91 539.65,247.08"/>
    </edge>
    <edge id=":42480155_2" function="internal">
        <lane id=":42480155_2_0" index="0" speed="6.55" length="9.09" shape="546.57,239.28 546.54,241.77 547.31,243.67 548.88,245.00 551.25,245.75"/>
    </edge>
    <edge id=":42480155_3" function="internal">
        <lane id=":42480155_3_0" index="0" speed="8.94" length="14.42" shape="546.57,239.28 544.29,253.52"/>
    </edge>
    <edge id=":42480155_4" function="internal">