<?xml version="1.0" encoding="UTF-8"?>

<!-- generated on 2025-04-27 21:17:31 by Eclipse SUMO jtrrouter Version 1.16.0
<configuration xmlns:xsi="http://www.w3.org/2001/XMLSchema-instance" xsi:noNamespaceSchemaLocation="http://sumo.dlr.de/xsd/jtrrouterConfiguration.xsd">

    <input>
        <net-file value="g:\TRANSIT\src/../models/real_world_streets/road.net.xml"/>
        <route-files value="g:\TRANSIT\src/../models/real_world_streets\bus.flow.xml,g:\TRANSIT\src/../models/real_world_streets\passenger.flow.xml"/>
    </input>

    <output>
        <output-file value="g:\TRANSIT\src/../models/real_world_streets/routes.routes.xml"/>
        <named-routes value="true"/>
    </output>

    <processing>
        <turn-defaults value="25,50,25"/>
        <accept-all-destinations value="true"/>
        <allow-loops value="true"/>
    </processing>

</configuration>
-->

<routes xmlns:xsi="http://www.w3.org/2001/XMLSchema-instance" xsi:noNamespaceSchemaLocation="http://sumo.dlr.de/xsd/routes_file.xsd">
    <vType id="bus" vClass="bus"/>
    <route id="r0" edges="1138642157 1138642158 1138642159 1138642160 1138642161 901349612 1122215707 1138642130 1138642131 1138642132 1138642133 1138642134 1138642135 618977203 1138642112 1138642113 1138642114 1138642149 1138642150 1138642104 1138642105 1138642106 1138642193 1138642082 1138642165 1138642110 1138642111 1138642138 1138642139 1138642180 1138642181 1138642089 1138642090 -587355756 1138642059 1138642058 221688254 954657728 944189670 1138642102 1138642103 1138642091 1138642092 1138642093 1138642094 1138642095 1138642087 1138642088 1138642182 1138642183 1138642184 1138642118 1138642119 1138642120 1138642057 1138642056 1138642055 1138642080 1138642079 1138642078 1138642077 981502363 1138642199 1138642200 1138642201 1138642202 1138642203 817722190 587355756 1138642052 1138642051 221696379 618977200 1138642080 1138642079 1138642078 1138642170 1138642171 1138642051 221696379 618977200 1138642163 5677430 1138642041 1138642092 1138642081 1138642082 1138642165 1138642110 1138642111 1138642140 1138642141 1138642142 1138642143 1138642069 1138642189 1138642190 1138642191 1138642192 587067519 1138642104 1138642105 1138642106 -222247159 1138642094 1138642095 1138642096 1138642097 1138642098 1138642099 1138642153 1138642154 -11443 5680704 1138642151 -11476 1138642154 -11443 5680704 1138642151 1138642152 1138642099 1138642153 1138642154 -11443 5680704 1138642151 1138642152 1138642099 1138642153 1138642154 1138642155 1138642156 1138642157 1138642158 1138642159 1138642160 1138642161 1138642162 1138642144 1138642145 1138642129 1138642130 1138642131 1138642132 1138642133 1138642134 1138642135 618977203 1138642112 1138642113 1138642114 1138642149 1138642173 1138642108 1138642109 1138642157 1138642158 1138642159 1138642160 1138642161 1138642162 1138642144 1138642145 1138642146 1138642189 1138642168 1138642064 1138642175 1138642191 1138642192 587067519 1138642104 1138642088 1138642178 1138642107 1138642185 1138642186 1138642187 1138642116 1138642075 1138642074 1138642073 1138642147 1138642148 1138642124 1138642125 1138642126 1138642179 1138642180 1138642181 1138642089 1138642072 1138642049 1138642200 1138642201 1138642202 1138642203 817722190 1138642059 1138642058 221688254 954657728 944189670 1138642102 1138642103 587067527 1138160503 1138642195 1138642196 1138642197 1138642198 1138642163 5677430 1138642041 1138642092 1138642081 1138642082 1138642165 1138642176 1138642083 1138642084 1138642106 1138642193 1138642082 1138642165 1138642110 1138642111 -5674514 5678419 1138642083 1138642084 1138642106 1138642193 1138642082 1138642165 1138642110 1138642111 1138642140 1138642120 221696385 1138642179 1138642180 5676884 1138642055 1138642080 1138642079 1138642078 1138642170 1138642171 1138642051 221696379 618977200 1138642163 1138642164 1138642165 1138642176 1138642177 1138642182 1138642183 1138642184 1138642118 1138642119 1138642120 221696385 1138642179 1138642180 5676884 1138642055 1138642163 1138642164 1138642165 1138642061 1138642060 -222247159 1138642094 1138642095 1138642087 1138642105 1138642085 1138642086 1138642095 1138642087 1138642088 1138642178 587067519 1138642048 1138642097 1138642172 1138642150 -587067519 1138642076 1138642117 1138642118 1138642119 1138642062 -5674514 5678419 1138642177 1138642178 1138642076 1138642117 1138642118 1138642119 1138642141 1138642175 1138642074 1138642168 1138642169 1138642125 1138642174 1138642175 1138642191 1138642192 1138642107 1138642108 1138642112 1138642113 1138642114 1138642149 1138642150 1138642104 1138642105 1138642085 1138642086 1138642095 1138642087 1138642105 1138642106 1138642193 1138642082 1138642165 1138642061 1138642060 -222247159 1138642094 1138642095 1138642096 1138642097 1138642172 1138642173 1138642185 1138642186 1138642187 1138642116 1138642117 1138642118 1138642119 1138642120 1138642057 1138642139 1138642180 1138642181 1138642089 1138642072 1138642071 1138642196 1138642197 1138642198 1138642121 1138642122 1138642139 1138642180 5676884 1138642122 1138642139 1138642180 5676884 1138642055 1138642163 5677430 981502360 981502361 -1138160503 -587067527 1138642091 1138642092 1138642081 1138642194 1138642041 1138642092 1138642081 1138642194 981502360 981502361 -1138160503 -587067527 1138642091 1138642092 1138642081 1138642194 981502360 981502361 981502363 1138642199 1138642200 1138642201 1138642202 1138642203 817722190 587355756 1138642052 1138642072 1138642049 1138642200 1138642201 1138642202 1138642203 817722190 587355756 1138642052 1138642051 221696379 618977200 1138642163 1138642164 1138642165 1138642110 1138642111 1138642140 1138642141 1138642142 1138642169 1138642125 1138642126 1138642179 1138642180 5676884 1023708572 1138642111 -5674514 5678419 1138642083 1138642084 1138642106 1138642193 1138642082 1138642165 1138642176 1138642177 1138642178 1138642076 1138642117 1138642118 1138642119 1138642120 221696385 1138642179 1138642180 5676884 1023708572 1138642053 1138642176 1138642177 1138642178 1138642107 1138642185 1138642186 1138642187 1138642188 1138642167 1138642168 1138642169 1138642125 1138642174 1138642142 1138642143 1138642069 1138642068 1138642067 1138642066"/>
    <vehicle id="bus.0.0" type="bus" depart="0.00" departPos="random" departSpeed="max" route="r0"/>
    <route id="r1" edges="1138642088 1138642182 1138642183 1138642184 1138642118 1138642119 1138642062 -5674514 5678419 1138642177 1138642178 1138642076 1138642075 1138642074 1138642073 1138642147 1138642148 1138642124 1138642125 1138642174 1138642063 1138642062 1138642054 1138642053 1138642176 1138642083 1138642084 1138642106 1138642136 1138642137 1138642110 1138642111 1138642140 1138642141 1138642142 1138642143 1138642069 1138642068 1138642129 1138642166 1138642167 1138642073 1138642147 1138642148 1138642124 1138642125 1138642126 1138642179 1138642180 1138642181 1138642089 1138642072 1138642071 1138642077 981502363 1138642199 1138642200 1138642201 1138642202 1138642203 817722190 587355756 1138642052 1138642051 221696379 618977200 1138642163 1138642164 1138642165 1138642110 1138642111 1138642140 1138642120 221696385 1138642179 1138642180 5676884 1023708572 1138642053 1138642176 1138642177 1138642182 1138642183 1138642184 1138642118 1138642119 1138642062 1138642054 1138642053 1138642061 1138642060 1138642193 1138642082 1138642165 1138642110 1138642111 1138642140 1138642120 1138642057 1138642139 1138642180 5676884 1138642122 1138642139 1138642180 1138642181 1138642089 1138642072 1138642049 1138642200 1138642201 1138642202 1138642203 817722190 1138642059 1138642058 221688254 954657728 944189670 1138642100 1138642101 1138642202 1138642203 817722190 587355756 1138642052 1138642072 1138642049 1138642200 1138642201 1138642202 1138642203 817722190 587355756 1138642052 1138642051 221696379 618977200 1138642163 1138642164 1138642165 1138642110 1138642111 1138642140 1138642141 1138642175 1138642074 1138642168 1138642169 1138642125 1138642174 1138642142 1138642143 1138642069 1138642068 1138642067 1138642066"/>
    <vehicle id="bus.1.0" type="bus" depart="0.00" departPos="random" departSpeed="max" route="r1"/>
    <route id="r2" edges="1138642189 1138642190 1138642191 1138642117 1138642118 1138642119 1138642120 1138642057 1138642056 1138642055 1138642163 5677430 981502360 981502361 981502363 1138642199 1138642200 1138642201 1138642202 1138642203 817722190 1138642059 1138642058 221688254 954657728 944189670 1138642102 1138642103 1138642091 1138642092 1138642093 222247159 1138642136 1138642137 1138642110 1138642111 1138642138 1138642056 1023708572 1138642053 1138642176 1138642177 1138642178 1138642076 1138642075 1138642074 1138642073 1138642068 1138642067 1138642066"/>
    <vehicle id="bus.10.0" type="bus" depart="0.00" departPos="random" departSpeed="max" route="r2"/>
    <route id="r3" edges="1138642100 5681207 1138642128 587355756 1138642052 1138642051 221696379 618977200 1138642163 1138642164 1138642165 1138642110 1138642111 1138642138 1138642139 1138642180 5676884 1138642055 1138642080 1138642079 1138642078 1138642170 1138642049 1138642050 1138642103 1138642091 1138642092 1138642093 1138642094 1138642095 1138642096 1138642097 1138642172 1138642173 1138642108 1138642109 1138642157 1138642158 1138642159 1138642160 1138642161 901349612 1122215707 1138642166 1138642167 1138642073 1138642068 1138642067 1138642066"/>
    <vehicle id="bus.11.0" type="bus" depart="0.00" departPos="random" departSpeed="max" route="r3"/>
    <route id="r4" edges="618977200 1138642163 1138642164 1138642165 1138642061 1138642060 -222247159 1138642094 1138642095 1138642096 1138642097 1138642098 1138642099 1138642153 1138642154 1138642155 1138642156 1138642157 1138642158 1138642159 1138642160 1138642161 1138642162 1138642144 1138642145 1138642146 1138642147 1138642065 1138642064 1138642175 1138642191 1138642192 1138642107 1138642185 1138642186 1138642187 1138642116 1138642117 1138642118 1138642119 1138642141 1138642142 1138642143 1138642069 1138642068 1138642067 1138642066"/>
    <vehicle id="bus.12.0" type="bus" depart="0.00" departPos="random" departSpeed="max" route="r4"/>
    <route id="r5" edges="1138642052 1138642072 1138642071 1138642196 1138642197 1138642198 1138642163 1138642164 1138642165 1138642176 -5678419 5674514 1138642054 1138642053 1138642061 1138642060 -222247159 1138642094 1138642095 1138642087 1138642088 1138642178 587067519 1138642104 1138642105 1138642085 1138642086 1138642095 1138642087 1138642105 1138642106 1138642136 1138642137 1138642176 1138642083 1138642084 1138642085 1138642086 1138642095 1138642096 1138642097 1138642098 1138642099 1138642153 1138642154 -11443 5680704 1138642151 -11476 1138642154 -11443 5680704 1138642151 1138642152 1138642099 1138642153 1138642154 -11443 5680704 1138642151 -11476 1138642154 -11443 5680704 1138642151 -11476 1138642154 -11443 5680704 1138642151 -11476 1138642154 1138642155 1138642156 1138642157 1138642158 1138642159 1138642160 1138642161 1138642162 1138642144 1138642145 1138642146 1138642189 1138642168 1138642169 1138642125 1138642126 1138642179 1138642180 1138642181 1138642089 1138642090 -587355756 1138642059 1138642058 221688254 954657728 944189670 1138642102 1138642103 587067527 1138160503 1138642195 1138642170 1138642171 1138642090 -587355756 1138642059 1138642058 221688254 954657728 944189670 1138642100 1138642101 1138642202 1138642203 817722190 1138642059 1138642058 221688254 954657728 944189670 1138642100 5681207 1138642058 221688254 954657728 944189670 1138642102 1138642103 1138642091 1138642092 1138642093 1138642094 1138642095 1138642096 1138642097 1138642172 1138642150 1138642048 1138642097 1138642098 1138642099 1138642153 1138642154 1138642155 1138642156 1138642157 1138642158 1138642159 1138642160 1138642161 1138642162 1138642144 1138642145 1138642146 1138642189 1138642168 1138642143 1138642069 1138642068 1138642129 1138642130 1138642131 1138642132 1138642115 1138642116 1138642117 1138642118 1138642119 1138642062 -5674514 5678419 1138642083 1138642084 1138642106 -222247159 1138642094 1138642095 1138642096 1138642097 1138642172 1138642173 1138642185 1138642186 1138642187 1138642116 1138642117 1138642118 1138642119 1138642120 221696385 1138642179 1138642180 1138642181 1138642089 1138642072 1138642049 1138642200 1138642201 1138642202 1138642203 817722190 1138642059 1138642058 221688254 954657728 944189670 1138642102 1138642103 587067527 1138160503 1138642195 1138642170 1138642049 1138642050 1138642103 1138642091 1138642092 1138642081 1138642194 981502360 981502361 981502363 1138642199 1138642200 1138642201 1138642202 1138642203 817722190 1138642059 1138642058 221688254 954657728 944189670 1138642100 5681207 1138642128 587355756 1138642052 1138642072 1138642049 1138642200 1138642201 1138642202 1138642203 817722190 1138642059 1138642058 221688254 954657728 944189670 1138642102 1138642103 1138642091 1138642092 1138642093 1138642094 1138642095 1138642096 1138642097 1138642172 1138642173 1138642185 1138642186 1138642187 1138642188 1138642167 1138642168 1138642169 1138642125 1138642126 1138642179 1138642180 5676884 1023708572 1138642111 1138642140 1138642120 221696385 1138642179 1138642180 5676884 1138642122 1138642139 1138642180 5676884 1023708572 1138642111 1138642140 1138642141 1138642175 1138642074 1138642168 1138642169 1138642125 1138642126 1138642179 1138642180 5676884 1138642055 1138642163 1138642164 1138642165 1138642176 1138642083 1138642084 1138642106 1138642193 1138642194 981502360 981502361 -1138160503 -587067527 1138642091 1138642092 1138642081 1138642082 1138642165 1138642176 -5678419 5674514 1138642138 1138642139 1138642180 1138642181 221696379 618977200 1138642121 1138642122 1138642123 221696385 1138642179 1138642180 5676884 1138642122 1138642139 1138642180 5676884 1138642055 1138642080 1138642079 1138642078 1138642077 981502363 1138642199 1138642200 1138642201 1138642202 1138642203 817722190 587355756 1138642052 1138642051 221696379 618977200 1138642080 1138642079 1138642078 1138642077 -1138160503 -587067527 1138642091 1138642092 1138642081 1138642082 1138642165 1138642110 1138642111 1138642140 1138642141 1138642175 1138642074 1138642168 1138642143 1138642148 1138642124 1138642125 1138642126 1138642179 1138642180 5676884 1023708572 1138642053 1138642061 1138642060 1138642193 1138642194 981502360 981502361 981502363 1138642199 1138642050 1138642103 587067527 1138160503 1138642195 1138642170 1138642049 1138642200 1138642201 1138642202 1138642203 817722190 1138642059 1138642058 221688254 954657728 944189670 1138642102 1138642103 1138642091 1138642092 1138642081 1138642194 1138642041 1138642092 1138642081 1138642082 1138642165 1138642176 -5678419 5674514 1138642054 1138642053 1138642061 1138642060 1138642193 1138642082 1138642165 1138642110 1138642111 1138642140 1138642141 1138642142 1138642143 1138642069 1138642189 1138642168 1138642169 1138642125 1138642174 1138642063 1138642062 1138642054 1138642053 1138642061 1138642060 1138642193 1138642082 1138642165 1138642110 1138642111 -5674514 5678419 1138642177 1138642182 1138642183 1138642184 1138642118 1138642119 1138642120 1138642057 1138642056 1138642055 1138642080 1138642079 1138642078 1138642170 1138642171 1138642090 -587355756 1138642059 1138642058 221688254 954657728 944189670 1138642102 1138642103 587067527 1138160503 981502363 1138642199 1138642050 1138642103 587067527 1138160503 1138642195 1138642170 1138642171 1138642090 -587355756 1138642059 1138642058 221688254 954657728 944189670 1138642100 5681207 1138642058 221688254 954657728 944189670 1138642102 1138642103 1138642091 1138642092 1138642081 1138642082 1138642165 1138642176 -5678419 5674514 1138642138 1138642139 1138642180 1138642181 221696379 618977200 1138642121 1023708572 1138642053 1138642176 1138642177 1138642178 1138642107 1138642108 1138642109 1138642157 1138642158 1138642159 1138642160 1138642161 1138642162 1138642144 1138642145 1138642129 1138642166 1138642167 1138642168 1138642169 1138642125 1138642174 1138642142 1138642143 1138642069 1138642189 1138642168 1138642169 1138642125 1138642174 1138642142 1138642143 1138642069 1138642189 1138642168 1138642169 1138642125 1138642174 1138642142 1138642169 1138642125 1138642174 1138642142 1138642169 1138642125 1138642126 1138642179 1138642180 5676884 1138642122 1138642139 1138642180 1138642181 1138642089 1138642090 -587355756 1138642059 1138642058 221688254 954657728 944189670 1138642102 1138642103 1138642091 1138642092 1138642093 1138642094 1138642095 1138642096 1138642097 1138642098 1138642099 1138642153 1138642154 -11443 5680704 1138642151 1138642152 1138642099 1138642153 1138642154 1138642155 1138642156 1138642157 1138642158 1138642159 1138642160 1138642161 1138642162 1138642144 1138642145 1138642146 1138642147 1138642148 1138642124 1138642125 1138642174 1138642063 1138642120 221696385 1138642179 1138642180 5676884 1023708572 1138642053 1138642061 1138642060 1138642193 1138642194 981502360 981502361 981502363 1138642199 1138642200 1138642201 1138642202 1138642203 817722190 587355756 1138642052 1138642072 1138642049 1138642200 1138642201 1138642202 1138642203 817722190 1138642059 1138642058 221688254 954657728 944189670 1138642100 5681207 1138642058 221688254 954657728 944189670 1138642102 1138642103 587067527 1138160503 981502363 1138642199 1138642200 1138642201 1138642202 1138642203 817722190 587355756 1138642052 1138642072 1138642049 1138642050 1138642103 1138642091 1138642092 1138642081 1138642082 1138642165 1138642176 1138642177 1138642182 1138642183 1138642184 1138642118 1138642119 1138642120 1138642057 1138642056 1138642055 1138642163 1138642164 1138642165 1138642176 -5678419 5674514 1138642140 1138642141 1138642142 1138642169 1138642125 1138642126 1138642179 1138642180 1138642181 221696379 618977200 1138642121 1138642122 1138642123 221696385 1138642179 1138642180 1138642181 1138642089 1138642090 -587355756 1138642059 1138642058 221688254 954657728 944189670 1138642102 1138642103 1138642091 1138642092 1138642093 222247159 1138642136 1138642137 1138642110 1138642111 1138642140 1138642120 221696385 1138642179 1138642180 5676884 1023708572 1138642053 1138642176 -5678419 5674514 1138642140 1138642120 221696385 1138642179 1138642180 1138642181 221696379 618977200 1138642080 1138642079 1138642078 1138642077 981502363 1138642199 1138642200 1138642201 1138642202 1138642203 817722190 1138642059 1138642058 221688254 954657728 944189670 1138642102 1138642103 1138642091 1138642092 1138642093 1138642094 1138642095 1138642087 1138642105 1138642085 1138642086 1138642095 1138642087 1138642088 1138642182 1138642183 1138642184 1138642118 1138642119 1138642141 1138642175 1138642074 1138642168 1138642169 1138642125 1138642174 1138642063 1138642120 1138642057 1138642139 1138642180 1138642181 221696379 618977200 1138642163 5677430 1138642041 1138642092 1138642093 1138642094 1138642095 1138642096 1138642097 1138642098 1138642099 1138642153 1138642154 -11443 5680704 1138642151 1138642152 1138642099 1138642153 1138642154 -11443 5680704 1138642151 1138642152 1138642099 1138642153 1138642154 1138642155 1138642156 1138642157 1138642158 1138642159 1138642160 1138642161 1138642162 1138642144 1138642145 1138642146 1138642189 1138642190 1138642191 1138642117 1138642118 1138642119 1138642120 221696385 1138642179 1138642180 5676884 1023708572 1138642053 1138642176 1138642177 1138642178 1138642076 1138642117 1138642118 1138642119 1138642120 221696385 1138642179 1138642180 5676884 1138642122 1138642139 1138642180 5676884 1138642122 1138642139 1138642180 1138642181 221696379 618977200 1138642163 1138642164 1138642165 1138642176 1138642177 1138642178 1138642107 1138642108 1138642109 1138642157 1138642158 1138642159 1138642160 1138642161 1138642162 1138642144 1138642145 1138642129 1138642166 1138642167 1138642190 1138642191 1138642117 1138642118 1138642119 1138642141 1138642142 1138642143 1138642069 1138642189 1138642190 1138642191 1138642117 1138642118 1138642119 1138642141 1138642142 1138642169 1138642125 1138642174 1138642175 1138642191 1138642192 1138642107 1138642185 1138642186 1138642187 1138642188 1138642167 1138642073 1138642068 1138642067 1138642066"/>
    <vehicle id="bus.13.0" type="bus" depart="0.00" departPos="random" departSpeed="max" route="r5"/>
    <route id="r6" edges="1138642197 1138642198 1138642121 1023708572 1138642053 1138642061 1138642060 1138642193 1138642194 981502360 981502361 -1138160503 -587067527 1138642091 1138642092 1138642093 222247159 1138642136 1138642137 1138642176 1138642177 1138642178 1138642076 1138642075 1138642074 1138642168 1138642169 1138642125 1138642126 1138642179 1138642180 1138642181 221696379 618977200 1138642163 5677430 981502360 981502361 1138642195 1138642170 1138642049 1138642200 1138642201 1138642202 1138642203 817722190 587355756 1138642052 1138642072 1138642049 1138642200 1138642201 1138642202 1138642203 817722190 1138642059 1138642058 221688254 954657728 944189670 1138642102 1138642103 1138642091 1138642092 1138642081 1138642082 1138642165 1138642176 -5678419 5674514 1138642138 1138642139 1138642180 5676884 1138642055 1138642080 1138642079 1138642078 1138642077 -1138160503 -587067527 1138642091 1138642092 1138642093 222247159 1138642193 1138642082 1138642165 1138642061 1138642060 -222247159 1138642094 1138642095 1138642087 1138642105 1138642085 1138642086 1138642095 1138642096 1138642097 1138642098 1138642099 1138642153 1138642154 -11443 5680704 1138642151 -11476 1138642154 1138642155 1138642156 1138642157 1138642158 1138642159 1138642160 1138642161 1138642162 1138642144 1138642145 1138642129 1138642130 1138642131 1138642132 1138642115 1138642188 1138642167 1138642190 1138642191 1138642192 587067519 1138642048 1138642097 1138642172 1138642150 1138642104 1138642105 1138642106 1138642136 1138642137 1138642110 1138642111 -5674514 5678419 1138642083 1138642084 1138642106 -222247159 1138642094 1138642095 1138642096 1138642097 1138642172 1138642173 1138642108 1138642109 1138642157 1138642158 1138642159 1138642160 1138642161 1138642162 1138642144 1138642145 1138642129 1138642130 1138642131 1138642132 1138642133 1138642134 1138642135 618977203 1138642109 1138642157 1138642158 1138642159 1138642160 1138642161 901349612 1122215707 1138642166 1138642167 1138642168 1138642064 1138642063 1138642062 1138642054 1138642053 1138642061 1138642060 -222247159 1138642094 1138642095 1138642096 1138642097 1138642172 1138642173 1138642108 1138642109 1138642157 1138642158 1138642159 1138642160 1138642161 901349612 1122215707 1138642130 1138642131 1138642132 1138642115 1138642116 1138642075 1138642074 1138642168 1138642143 1138642148 1138642124 1138642125 1138642174 1138642142 1138642143 1138642069 1138642068 1138642067 1138642066"/>
    <vehicle id="bus.14.0" type="bus" depart="0.00" departPos="random" departSpeed="max" route="r6"/>