<?xml version="1.0" encoding="UTF-8"?>

<!-- generated on 2025-04-23 10:28:32.039785 by randomTrips.py v1_18_0+0000-03ecfdea036
<configuration>
    <net-file value="d:\TRANSIT\src/../models/theoretical_streets/road.net.xml"/>
    <output-trip-file value="d:\TRANSIT\src/../models/theoretical_streets//bus.flow.xml"/>
    <trip-attributes value="departPos='random' departSpeed='max'"/>
    <vehicle-class value="bus"/>
    <jtrrouter value="True"/>
    <end value="1.0"/>
    <flows value="20"/>
</configuration>
-->

<routes xmlns:xsi="http://www.w3.org/2001/XMLSchema-instance" xsi:noNamespaceSchemaLocation="http://sumo.dlr.de/xsd/routes_file.xsd">
    <vType id="bus" vClass="bus"/>
    <flow id="bus.0" begin="0" end="1" period="20" from="D0E0" departPos='random' departSpeed='max' type="bus"/>
    <flow id="bus.1" begin="0" end="1" period="20" from="B2B3" departPos='random' departSpeed='max' type="bus"/>
    <flow id="bus.2" begin="0" end="1" period="20" from="D2D3" departPos='random' departSpeed='max' type="bus"/>
    <flow id="bus.3" begin="0" end="1" period="20" from="E1E2" departPos='random' departSpeed='max' type="bus"/>
    <flow id="bus.4" begin="0" end="1" period="20" from="C0D0" departPos='random' departSpeed='max' type="bus"/>
    <flow id="bus.5" begin="0" end="1" period="20" from="B1B0" departPos='random' departSpeed='max' type="bus"/>
    <flow id="bus.6" begin="0" end="1" period="20" from="A1A0" departPos='random' departSpeed='max' type="bus"/>
    <flow id="bus.7" begin="0" end="1" period="20" from="D0E0" departPos='random' departSpeed='max' type="bus"/>
    <flow id="bus.8" begin="0" end="1" period="20" from="B1B0" departPos='random' departSpeed='max' type="bus"/>
    <flow id="bus.9" begin="0" end="1" period="20" from="D4C4" departPos='random' departSpeed='max' type="bus"/>
    <flow id="bus.10" begin="0" end="1" period="20" from="D4C4" departPos='random' departSpeed='max' type="bus"/>
    <flow id="bus.11" begin="0" end="1" period="20" from="B3C3" departPos='random' departSpeed='max' type="bus"/>
    <flow id="bus.12" begin="0" end="1" period="20" from="E3E2" departPos='random' departSpeed='max' type="bus"/>
    <flow id="bus.13" begin="0" end="1" period="20" from="A2B2" departPos='random' departSpeed='max' type="bus"/>
    <flow id="bus.14" begin="0" end="1" period="20" from="E0D0" departPos='random' departSpeed='max' type="bus"/>
    <flow id="bus.15" begin="0" end="1" period="20" from="D4C4" departPos='random' departSpeed='max' type="bus"/>
    <flow id="bus.16" begin="0" end="1" period="20" from="C3B3" departPos='random' departSpeed='max' type="bus"/>
    <flow id="bus.17" begin="0" end="1" period="20" from="B4C4" departPos='random' departSpeed='max' type="bus"/>
    <flow id="bus.18" begin="0" end="1" period="20" from="D4E4" departPos='random' departSpeed='max' type="bus"/>
    <flow id="bus.19" begin="0" end="1" period="20" from="E0E1" departPos='random' departSpeed='max' type="bus"/>
</routes>
