<?xml version="1.0" encoding="utf-8"?>
<additional>
	<inductionLoop id="A0A1_0_0" lane="A0A1_0" pos="94.8" file="detectors.out.xml" freq="60"/>
	<inductionLoop id="A0B0_0_0" lane="A0B0_0" pos="94.8" file="detectors.out.xml" freq="60"/>
	<inductionLoop id="A1A0_0_0" lane="A1A0_0" pos="94.8" file="detectors.out.xml" freq="60"/>
	<inductionLoop id="A1A2_0_0" lane="A1A2_0" pos="92.8" file="detectors.out.xml" freq="60"/>
	<inductionLoop id="A1B1_0_0" lane="A1B1_0" pos="92.8" file="detectors.out.xml" freq="60"/>
	<inductionLoop id="A2A1_0_0" lane="A2A1_0" pos="92.8" file="detectors.out.xml" freq="60"/>
	<inductionLoop id="A2A3_0_0" lane="A2A3_0" pos="92.8" file="detectors.out.xml" freq="60"/>
	<inductionLoop id="A2B2_0_0" lane="A2B2_0" pos="92.8" file="detectors.out.xml" freq="60"/>
	<inductionLoop id="A3A2_0_0" lane="A3A2_0" pos="92.8" file="detectors.out.xml" freq="60"/>
	<inductionLoop id="A3A4_0_0" lane="A3A4_0" pos="94.8" file="detectors.out.xml" freq="60"/>
	<inductionLoop id="A3B3_0_0" lane="A3B3_0" pos="92.8" file="detectors.out.xml" freq="60"/>
	<inductionLoop id="A4A3_0_0" lane="A4A3_0" pos="94.8" file="detectors.out.xml" freq="60"/>
	<inductionLoop id="A4B4_0_0" lane="A4B4_0" pos="94.8" file="detectors.out.xml" freq="60"/>
	<inductionLoop id="B0A0_0_0" lane="B0A0_0" pos="94.8" file="detectors.out.xml" freq="60"/>
	<inductionLoop id="B0B1_0_0" lane="B0B1_0" pos="92.8" file="detectors.out.xml" freq="60"/>
	<inductionLoop id="B0C0_0_0" lane="B0C0_0" pos="92.8" file="detectors.out.xml" freq="60"/>
	<inductionLoop id="B1A1_0_0" lane="B1A1_0" pos="92.8" file="detectors.out.xml" freq="60"/>
	<inductionLoop id="B1B0_0_0" lane="B1B0_0" pos="92.8" file="detectors.out.xml" freq="60"/>
	<inductionLoop id="B1B2_0_0" lane="B1B2_0" pos="92.8" file="detectors.out.xml" freq="60"/>
	<inductionLoop id="B1C1_0_0" lane="B1C1_0" pos="92.8" file="detectors.out.xml" freq="60"/>
	<inductionLoop id="B2A2_0_0" lane="B2A2_0" pos="92.8" file="detectors.out.xml" freq="60"/>
	<inductionLoop id="B2B1_0_0" lane="B2B1_0" pos="92.8" file="detectors.out.xml" freq="60"/>
	<inductionLoop id="B2B3_0_0" lane="B2B3_0" pos="92.8" file="detectors.out.xml" freq="60"/>
	<inductionLoop id="B2C2_0_0" lane="B2C2_0" pos="92.8" file="detectors.out.xml" freq="60"/>
	<inductionLoop id="B3A3_0_0" lane="B3A3_0" pos="92.8" file="detectors.out.xml" freq="60"/>
	<inductionLoop id="B3B2_0_0" lane="B3B2_0" pos="92.8" file="detectors.out.xml" freq="60"/>
	<inductionLoop id="B3B4_0_0" lane="B3B4_0" pos="92.8" file="detectors.out.xml" freq="60"/>
	<inductionLoop id="B3C3_0_0" lane="B3C3_0" pos="92.8" file="detectors.out.xml" freq="60"/>
	<inductionLoop id="B4A4_0_0" lane="B4A4_0" pos="94.8" file="detectors.out.xml" freq="60"/>
	<inductionLoop id="B4B3_0_0" lane="B4B3_0" pos="92.8" file="detectors.out.xml" freq="60"/>
	<inductionLoop id="B4C4_0_0" lane="B4C4_0" pos="92.8" file="detectors.out.xml" freq="60"/>
	<inductionLoop id="C0B0_0_0" lane="C0B0_0" pos="92.8" file="detectors.out.xml" freq="60"/>
	<inductionLoop id="C0C1_0_0" lane="C0C1_0" pos="92.8" file="detectors.out.xml" freq="60"/>
	<inductionLoop id="C0D0_0_0" lane="C0D0_0" pos="92.8" file="detectors.out.xml" freq="60"/>
	<inductionLoop id="C1B1_0_0" lane="C1B1_0" pos="92.8" file="detectors.out.xml" freq="60"/>
	<inductionLoop id="C1C0_0_0" lane="C1C0_0" pos="92.8" file="detectors.out.xml" freq="60"/>
	<inductionLoop id="C1C2_0_0" lane="C1C2_0" pos="92.8" file="detectors.out.xml" freq="60"/>
	<inductionLoop id="C1D1_0_0" lane="C1D1_0" pos="92.8" file="detectors.out.xml" freq="60"/>
	<inductionLoop id="C2B2_0_0" lane="C2B2_0" pos="92.8" file="detectors.out.xml" freq="60"/>
	<inductionLoop id="C2C1_0_0" lane="C2C1_0" pos="92.8" file="detectors.out.xml" freq="60"/>
	<inductionLoop id="C2C3_0_0" lane="C2C3_0" pos="92.8" file="detectors.out.xml" freq="60"/>
	<inductionLoop id="C2D2_0_0" lane="C2D2_0" pos="92.8" file="detectors.out.xml" freq="60"/>
	<inductionLoop id="C3B3_0_0" lane="C3B3_0" pos="92.8" file="detectors.out.xml" freq="60"/>
	<inductionLoop id="C3C2_0_0" lane="C3C2_0" pos="92.8" file="detectors.out.xml" freq="60"/>
	<inductionLoop id="C3C4_0_0" lane="C3C4_0" pos="92.8" file="detectors.out.xml" freq="60"/>
	<inductionLoop id="C3D3_0_0" lane="C3D3_0" pos="92.8" file="detectors.out.xml" freq="60"/>
	<inductionLoop id="C4B4_0_0" lane="C4B4_0" pos="92.8" file="detectors.out.xml" freq="60"/>
	<inductionLoop id="C4C3_0_0" lane="C4C3_0" pos="92.8" file="detectors.out.xml" freq="60"/>
	<inductionLoop id="C4D4_0_0" lane="C4D4_0" pos="92.8" file="detectors.out.xml" freq="60"/>
	<inductionLoop id="D0C0_0_0" lane="D0C0_0" pos="92.8" file="detectors.out.xml" freq="60"/>
	<inductionLoop id="D0D1_0_0" lane="D0D1_0" pos="92.8" file="detectors.out.xml" freq="60"/>
	<inductionLoop id="D0E0_0_0" lane="D0E0_0" pos="94.8" file="detectors.out.xml" freq="60"/>
	<inductionLoop id="D1C1_0_0" lane="D1C1_0" pos="92.8" file="detectors.out.xml" freq="60"/>
	<inductionLoop id="D1D0_0_0" lane="D1D0_0" pos="92.8" file="detectors.out.xml" freq="60"/>
	<inductionLoop id="D1D2_0_0" lane="D1D2_0" pos="92.8" file="detectors.out.xml" freq="60"/>
	<inductionLoop id="D1E1_0_0" lane="D1E1_0" pos="92.8" file="detectors.out.xml" freq="60"/>
	<inductionLoop id="D2C2_0_0" lane="D2C2_0" pos="92.8" file="detectors.out.xml" freq="60"/>
	<inductionLoop id="D2D1_0_0" lane="D2D1_0" pos="92.8" file="detectors.out.xml" freq="60"/>
	<inductionLoop id="D2D3_0_0" lane="D2D3_0" pos="92.8" file="detectors.out.xml" freq="60"/>
	<inductionLoop id="D2E2_0_0" lane="D2E2_0" pos="92.8" file="detectors.out.xml" freq="60"/>
	<inductionLoop id="D3C3_0_0" lane="D3C3_0" pos="92.8" file="detectors.out.xml" freq="60"/>
	<inductionLoop id="D3D2_0_0" lane="D3D2_0" pos="92.8" file="detectors.out.xml" freq="60"/>
	<inductionLoop id="D3D4_0_0" lane="D3D4_0" pos="92.8" file="detectors.out.xml" freq="60"/>
	<inductionLoop id="D3E3_0_0" lane="D3E3_0" pos="92.8" file="detectors.out.xml" freq="60"/>
	<inductionLoop id="D4C4_0_0" lane="D4C4_0" pos="92.8" file="detectors.out.xml" freq="60"/>
	<inductionLoop id="D4D3_0_0" lane="D4D3_0" pos="92.8" file="detectors.out.xml" freq="60"/>
	<inductionLoop id="D4E4_0_0" lane="D4E4_0" pos="94.8" file="detectors.out.xml" freq="60"/>
	<inductionLoop id="E0D0_0_0" lane="E0D0_0" pos="94.8" file="detectors.out.xml" freq="60"/>
	<inductionLoop id="E0E1_0_0" lane="E0E1_0" pos="94.8" file="detectors.out.xml" freq="60"/>
	<inductionLoop id="E1D1_0_0" lane="E1D1_0" pos="92.8" file="detectors.out.xml" freq="60"/>
	<inductionLoop id="E1E0_0_0" lane="E1E0_0" pos="94.8" file="detectors.out.xml" freq="60"/>
	<inductionLoop id="E1E2_0_0" lane="E1E2_0" pos="92.8" file="detectors.out.xml" freq="60"/>
	<inductionLoop id="E2D2_0_0" lane="E2D2_0" pos="92.8" file="detectors.out.xml" freq="60"/>
	<inductionLoop id="E2E1_0_0" lane="E2E1_0" pos="92.8" file="detectors.out.xml" freq="60"/>
	<inductionLoop id="E2E3_0_0" lane="E2E3_0" pos="92.8" file="detectors.out.xml" freq="60"/>
	<inductionLoop id="E3D3_0_0" lane="E3D3_0" pos="92.8" file="detectors.out.xml" freq="60"/>
	<inductionLoop id="E3E2_0_0" lane="E3E2_0" pos="92.8" file="detectors.out.xml" freq="60"/>
	<inductionLoop id="E3E4_0_0" lane="E3E4_0" pos="94.8" file="detectors.out.xml" freq="60"/>
	<inductionLoop id="E4D4_0_0" lane="E4D4_0" pos="94.8" file="detectors.out.xml" freq="60"/>
	<inductionLoop id="E4E3_0_0" lane="E4E3_0" pos="94.8" file="detectors.out.xml" freq="60"/>
</additional>
