<?xml version="1.0" encoding="UTF-8"?>

<!-- generated on 2025-04-23 10:28:31.441794 by randomTrips.py v1_18_0+0000-03ecfdea036
<configuration>
    <net-file value="d:\TRANSIT\src/../models/theoretical_streets/road.net.xml"/>
    <output-trip-file value="d:\TRANSIT\src/../models/theoretical_streets//passenger.flow.xml"/>
    <trip-attributes value="departPos='random' departSpeed='max'"/>
    <vehicle-class value="passenger"/>
    <jtrrouter value="True"/>
    <end value="1.0"/>
    <flows value="162"/>
</configuration>
-->

<routes xmlns:xsi="http://www.w3.org/2001/XMLSchema-instance" xsi:noNamespaceSchemaLocation="http://sumo.dlr.de/xsd/routes_file.xsd">
    <vType id="passenger" vClass="passenger"/>
    <flow id="passenger.0" begin="0" end="1" period="162" from="D0E0" departPos='random' departSpeed='max' type="passenger"/>
    <flow id="passenger.1" begin="0" end="1" period="162" from="B2B3" departPos='random' departSpeed='max' type="passenger"/>
    <flow id="passenger.2" begin="0" end="1" period="162" from="D2D3" departPos='random' departSpeed='max' type="passenger"/>
    <flow id="passenger.3" begin="0" end="1" period="162" from="E1E2" departPos='random' departSpeed='max' type="passenger"/>
    <flow id="passenger.4" begin="0" end="1" period="162" from="C0D0" departPos='random' departSpeed='max' type="passenger"/>
    <flow id="passenger.5" begin="0" end="1" period="162" from="B1B0" departPos='random' departSpeed='max' type="passenger"/>
    <flow id="passenger.6" begin="0" end="1" period="162" from="A1A0" departPos='random' departSpeed='max' type="passenger"/>
    <flow id="passenger.7" begin="0" end="1" period="162" from="D0E0" departPos='random' departSpeed='max' type="passenger"/>
    <flow id="passenger.8" begin="0" end="1" period="162" from="B1B0" departPos='random' departSpeed='max' type="passenger"/>
    <flow id="passenger.9" begin="0" end="1" period="162" from="D4C4" departPos='random' departSpeed='max' type="passenger"/>
    <flow id="passenger.10" begin="0" end="1" period="162" from="D4C4" departPos='random' departSpeed='max' type="passenger"/>
    <flow id="passenger.11" begin="0" end="1" period="162" from="B3C3" departPos='random' departSpeed='max' type="passenger"/>
    <flow id="passenger.12" begin="0" end="1" period="162" from="E3E2" departPos='random' departSpeed='max' type="passenger"/>
    <flow id="passenger.13" begin="0" end="1" period="162" from="A2B2" departPos='random' departSpeed='max' type="passenger"/>
    <flow id="passenger.14" begin="0" end="1" period="162" from="E0D0" departPos='random' departSpeed='max' type="passenger"/>
    <flow id="passenger.15" begin="0" end="1" period="162" from="D4C4" departPos='random' departSpeed='max' type="passenger"/>
    <flow id="passenger.16" begin="0" end="1" period="162" from="C3B3" departPos='random' departSpeed='max' type="passenger"/>
    <flow id="passenger.17" begin="0" end="1" period="162" from="B4C4" departPos='random' departSpeed='max' type="passenger"/>
    <flow id="passenger.18" begin="0" end="1" period="162" from="D4E4" departPos='random' departSpeed='max' type="passenger"/>
    <flow id="passenger.19" begin="0" end="1" period="162" from="E0E1" departPos='random' departSpeed='max' type="passenger"/>
    <flow id="passenger.20" begin="0" end="1" period="162" from="D2C2" departPos='random' departSpeed='max' type="passenger"/>
    <flow id="passenger.21" begin="0" end="1" period="162" from="B1B2" departPos='random' departSpeed='max' type="passenger"/>
    <flow id="passenger.22" begin="0" end="1" period="162" from="A2A3" departPos='random' departSpeed='max' type="passenger"/>
    <flow id="passenger.23" begin="0" end="1" period="162" from="A3A2" departPos='random' departSpeed='max' type="passenger"/>
    <flow id="passenger.24" begin="0" end="1" period="162" from="D0D1" departPos='random' departSpeed='max' type="passenger"/>
    <flow id="passenger.25" begin="0" end="1" period="162" from="B4B3" departPos='random' departSpeed='max' type="passenger"/>
    <flow id="passenger.26" begin="0" end="1" period="162" from="B2B1" departPos='random' departSpeed='max' type="passenger"/>
    <flow id="passenger.27" begin="0" end="1" period="162" from="D0E0" departPos='random' departSpeed='max' type="passenger"/>
    <flow id="passenger.28" begin="0" end="1" period="162" from="B0A0" departPos='random' departSpeed='max' type="passenger"/>
    <flow id="passenger.29" begin="0" end="1" period="162" from="B0A0" departPos='random' departSpeed='max' type="passenger"/>
    <flow id="passenger.30" begin="0" end="1" period="162" from="E4E3" departPos='random' departSpeed='max' type="passenger"/>
    <flow id="passenger.31" begin="0" end="1" period="162" from="C3C4" departPos='random' departSpeed='max' type="passenger"/>
    <flow id="passenger.32" begin="0" end="1" period="162" from="E0D0" departPos='random' departSpeed='max' type="passenger"/>
    <flow id="passenger.33" begin="0" end="1" period="162" from="B1B2" departPos='random' departSpeed='max' type="passenger"/>
    <flow id="passenger.34" begin="0" end="1" period="162" from="B3B2" departPos='random' departSpeed='max' type="passenger"/>
    <flow id="passenger.35" begin="0" end="1" period="162" from="B1A1" departPos='random' departSpeed='max' type="passenger"/>
    <flow id="passenger.36" begin="0" end="1" period="162" from="E1E0" departPos='random' departSpeed='max' type="passenger"/>
    <flow id="passenger.37" begin="0" end="1" period="162" from="D1C1" departPos='random' departSpeed='max' type="passenger"/>
    <flow id="passenger.38" begin="0" end="1" period="162" from="E2E1" departPos='random' departSpeed='max' type="passenger"/>
    <flow id="passenger.39" begin="0" end="1" period="162" from="B2B1" departPos='random' departSpeed='max' type="passenger"/>
    <flow id="passenger.40" begin="0" end="1" period="162" from="C3C4" departPos='random' departSpeed='max' type="passenger"/>
    <flow id="passenger.41" begin="0" end="1" period="162" from="C4B4" departPos='random' departSpeed='max' type="passenger"/>
    <flow id="passenger.42" begin="0" end="1" period="162" from="C0B0" departPos='random' departSpeed='max' type="passenger"/>
    <flow id="passenger.43" begin="0" end="1" period="162" from="E4E3" departPos='random' departSpeed='max' type="passenger"/>
    <flow id="passenger.44" begin="0" end="1" period="162" from="A2B2" departPos='random' departSpeed='max' type="passenger"/>
    <flow id="passenger.45" begin="0" end="1" period="162" from="A3A2" departPos='random' departSpeed='max' type="passenger"/>
    <flow id="passenger.46" begin="0" end="1" period="162" from="D3E3" departPos='random' departSpeed='max' type="passenger"/>
    <flow id="passenger.47" begin="0" end="1" period="162" from="A2A1" departPos='random' departSpeed='max' type="passenger"/>
    <flow id="passenger.48" begin="0" end="1" period="162" from="E4E3" departPos='random' departSpeed='max' type="passenger"/>
    <flow id="passenger.49" begin="0" end="1" period="162" from="E3E4" departPos='random' departSpeed='max' type="passenger"/>
    <flow id="passenger.50" begin="0" end="1" period="162" from="A0A1" departPos='random' departSpeed='max' type="passenger"/>
    <flow id="passenger.51" begin="0" end="1" period="162" from="D1D2" departPos='random' departSpeed='max' type="passenger"/>
    <flow id="passenger.52" begin="0" end="1" period="162" from="B2B1" departPos='random' departSpeed='max' type="passenger"/>
    <flow id="passenger.53" begin="0" end="1" period="162" from="A3A2" departPos='random' departSpeed='max' type="passenger"/>
    <flow id="passenger.54" begin="0" end="1" period="162" from="C1C2" departPos='random' departSpeed='max' type="passenger"/>
    <flow id="passenger.55" begin="0" end="1" period="162" from="E1E0" departPos='random' departSpeed='max' type="passenger"/>
    <flow id="passenger.56" begin="0" end="1" period="162" from="C2C3" departPos='random' departSpeed='max' type="passenger"/>
    <flow id="passenger.57" begin="0" end="1" period="162" from="E2E1" departPos='random' departSpeed='max' type="passenger"/>
    <flow id="passenger.58" begin="0" end="1" period="162" from="B2C2" departPos='random' departSpeed='max' type="passenger"/>
    <flow id="passenger.59" begin="0" end="1" period="162" from="C4D4" departPos='random' departSpeed='max' type="passenger"/>
    <flow id="passenger.60" begin="0" end="1" period="162" from="D3D2" departPos='random' departSpeed='max' type="passenger"/>
    <flow id="passenger.61" begin="0" end="1" period="162" from="D3D4" departPos='random' departSpeed='max' type="passenger"/>
    <flow id="passenger.62" begin="0" end="1" period="162" from="A0A1" departPos='random' departSpeed='max' type="passenger"/>
    <flow id="passenger.63" begin="0" end="1" period="162" from="A0B0" departPos='random' departSpeed='max' type="passenger"/>
    <flow id="passenger.64" begin="0" end="1" period="162" from="E1E0" departPos='random' departSpeed='max' type="passenger"/>
    <flow id="passenger.65" begin="0" end="1" period="162" from="B3A3" departPos='random' departSpeed='max' type="passenger"/>
    <flow id="passenger.66" begin="0" end="1" period="162" from="E1E0" departPos='random' departSpeed='max' type="passenger"/>
    <flow id="passenger.67" begin="0" end="1" period="162" from="A2A3" departPos='random' departSpeed='max' type="passenger"/>
    <flow id="passenger.68" begin="0" end="1" period="162" from="A2A1" departPos='random' departSpeed='max' type="passenger"/>
    <flow id="passenger.69" begin="0" end="1" period="162" from="D3D2" departPos='random' departSpeed='max' type="passenger"/>
    <flow id="passenger.70" begin="0" end="1" period="162" from="C2B2" departPos='random' departSpeed='max' type="passenger"/>
    <flow id="passenger.71" begin="0" end="1" period="162" from="B2B1" departPos='random' departSpeed='max' type="passenger"/>
    <flow id="passenger.72" begin="0" end="1" period="162" from="C0D0" departPos='random' departSpeed='max' type="passenger"/>
    <flow id="passenger.73" begin="0" end="1" period="162" from="C3C2" departPos='random' departSpeed='max' type="passenger"/>
    <flow id="passenger.74" begin="0" end="1" period="162" from="B1A1" departPos='random' departSpeed='max' type="passenger"/>
    <flow id="passenger.75" begin="0" end="1" period="162" from="E4E3" departPos='random' departSpeed='max' type="passenger"/>
    <flow id="passenger.76" begin="0" end="1" period="162" from="C1C0" departPos='random' departSpeed='max' type="passenger"/>
    <flow id="passenger.77" begin="0" end="1" period="162" from="A3A4" departPos='random' departSpeed='max' type="passenger"/>
    <flow id="passenger.78" begin="0" end="1" period="162" from="B3C3" departPos='random' departSpeed='max' type="passenger"/>
    <flow id="passenger.79" begin="0" end="1" period="162" from="B1B2" departPos='random' departSpeed='max' type="passenger"/>
    <flow id="passenger.80" begin="0" end="1" period="162" from="A2A1" departPos='random' departSpeed='max' type="passenger"/>
    <flow id="passenger.81" begin="0" end="1" period="162" from="B1B2" departPos='random' departSpeed='max' type="passenger"/>
    <flow id="passenger.82" begin="0" end="1" period="162" from="E0E1" departPos='random' departSpeed='max' type="passenger"/>
    <flow id="passenger.83" begin="0" end="1" period="162" from="B1C1" departPos='random' departSpeed='max' type="passenger"/>
    <flow id="passenger.84" begin="0" end="1" period="162" from="B1B0" departPos='random' departSpeed='max' type="passenger"/>
    <flow id="passenger.85" begin="0" end="1" period="162" from="E2E3" departPos='random' departSpeed='max' type="passenger"/>
    <flow id="passenger.86" begin="0" end="1" period="162" from="C1D1" departPos='random' departSpeed='max' type="passenger"/>
    <flow id="passenger.87" begin="0" end="1" period="162" from="D4C4" departPos='random' departSpeed='max' type="passenger"/>
    <flow id="passenger.88" begin="0" end="1" period="162" from="A2B2" departPos='random' departSpeed='max' type="passenger"/>
    <flow id="passenger.89" begin="0" end="1" period="162" from="C0D0" departPos='random' departSpeed='max' type="passenger"/>
    <flow id="passenger.90" begin="0" end="1" period="162" from="D2D3" departPos='random' departSpeed='max' type="passenger"/>
    <flow id="passenger.91" begin="0" end="1" period="162" from="E4D4" departPos='random' departSpeed='max' type="passenger"/>
    <flow id="passenger.92" begin="0" end="1" period="162" from="C0C1" departPos='random' departSpeed='max' type="passenger"/>
    <flow id="passenger.93" begin="0" end="1" period="162" from="E0E1" departPos='random' departSpeed='max' type="passenger"/>
    <flow id="passenger.94" begin="0" end="1" period="162" from="B0C0" departPos='random' departSpeed='max' type="passenger"/>
    <flow id="passenger.95" begin="0" end="1" period="162" from="C0D0" departPos='random' departSpeed='max' type="passenger"/>
    <flow id="passenger.96" begin="0" end="1" period="162" from="B1C1" departPos='random' departSpeed='max' type="passenger"/>
    <flow id="passenger.97" begin="0" end="1" period="162" from="C1C0" departPos='random' departSpeed='max' type="passenger"/>
    <flow id="passenger.98" begin="0" end="1" period="162" from="C3C4" departPos='random' departSpeed='max' type="passenger"/>
    <flow id="passenger.99" begin="0" end="1" period="162" from="E4E3" departPos='random' departSpeed='max' type="passenger"/>
    <flow id="passenger.100" begin="0" end="1" period="162" from="E3E4" departPos='random' departSpeed='max' type="passenger"/>
    <flow id="passenger.101" begin="0" end="1" period="162" from="E0D0" departPos='random' departSpeed='max' type="passenger"/>
    <flow id="passenger.102" begin="0" end="1" period="162" from="C2B2" departPos='random' departSpeed='max' type="passenger"/>
    <flow id="passenger.103" begin="0" end="1" period="162" from="C0C1" departPos='random' departSpeed='max' type="passenger"/>
    <flow id="passenger.104" begin="0" end="1" period="162" from="B4C4" departPos='random' departSpeed='max' type="passenger"/>
    <flow id="passenger.105" begin="0" end="1" period="162" from="B2B1" departPos='random' departSpeed='max' type="passenger"/>
    <flow id="passenger.106" begin="0" end="1" period="162" from="C1C2" departPos='random' departSpeed='max' type="passenger"/>
    <flow id="passenger.107" begin="0" end="1" period="162" from="E3E2" departPos='random' departSpeed='max' type="passenger"/>
    <flow id="passenger.108" begin="0" end="1" period="162" from="C3C4" departPos='random' departSpeed='max' type="passenger"/>
    <flow id="passenger.109" begin="0" end="1" period="162" from="A4B4" departPos='random' departSpeed='max' type="passenger"/>
    <flow id="passenger.110" begin="0" end="1" period="162" from="E3E4" departPos='random' departSpeed='max' type="passenger"/>
    <flow id="passenger.111" begin="0" end="1" period="162" from="C3C2" departPos='random' departSpeed='max' type="passenger"/>
    <flow id="passenger.112" begin="0" end="1" period="162" from="A1B1" departPos='random' departSpeed='max' type="passenger"/>
    <flow id="passenger.113" begin="0" end="1" period="162" from="C2C3" departPos='random' departSpeed='max' type="passenger"/>
    <flow id="passenger.114" begin="0" end="1" period="162" from="A4B4" departPos='random' departSpeed='max' type="passenger"/>
    <flow id="passenger.115" begin="0" end="1" period="162" from="A2A3" departPos='random' departSpeed='max' type="passenger"/>
    <flow id="passenger.116" begin="0" end="1" period="162" from="C4C3" departPos='random' departSpeed='max' type="passenger"/>
    <flow id="passenger.117" begin="0" end="1" period="162" from="B1B2" departPos='random' departSpeed='max' type="passenger"/>
    <flow id="passenger.118" begin="0" end="1" period="162" from="E1E2" departPos='random' departSpeed='max' type="passenger"/>
    <flow id="passenger.119" begin="0" end="1" period="162" from="C4C3" departPos='random' departSpeed='max' type="passenger"/>
    <flow id="passenger.120" begin="0" end="1" period="162" from="C0D0" departPos='random' departSpeed='max' type="passenger"/>
    <flow id="passenger.121" begin="0" end="1" period="162" from="C2D2" departPos='random' departSpeed='max' type="passenger"/>
    <flow id="passenger.122" begin="0" end="1" period="162" from="B1A1" departPos='random' departSpeed='max' type="passenger"/>
    <flow id="passenger.123" begin="0" end="1" period="162" from="B1C1" departPos='random' departSpeed='max' type="passenger"/>
    <flow id="passenger.124" begin="0" end="1" period="162" from="D1D0" departPos='random' departSpeed='max' type="passenger"/>
    <flow id="passenger.125" begin="0" end="1" period="162" from="B3B2" departPos='random' departSpeed='max' type="passenger"/>
    <flow id="passenger.126" begin="0" end="1" period="162" from="A2A1" departPos='random' departSpeed='max' type="passenger"/>
    <flow id="passenger.127" begin="0" end="1" period="162" from="E4E3" departPos='random' departSpeed='max' type="passenger"/>
    <flow id="passenger.128" begin="0" end="1" period="162" from="A2A1" departPos='random' departSpeed='max' type="passenger"/>
    <flow id="passenger.129" begin="0" end="1" period="162" from="B2B1" departPos='random' departSpeed='max' type="passenger"/>
    <flow id="passenger.130" begin="0" end="1" period="162" from="E1E0" departPos='random' departSpeed='max' type="passenger"/>
    <flow id="passenger.131" begin="0" end="1" period="162" from="B4B3" departPos='random' departSpeed='max' type="passenger"/>
    <flow id="passenger.132" begin="0" end="1" period="162" from="D4E4" departPos='random' departSpeed='max' type="passenger"/>
    <flow id="passenger.133" begin="0" end="1" period="162" from="C4D4" departPos='random' departSpeed='max' type="passenger"/>
    <flow id="passenger.134" begin="0" end="1" period="162" from="D1C1" departPos='random' departSpeed='max' type="passenger"/>
    <flow id="passenger.135" begin="0" end="1" period="162" from="D4D3" departPos='random' departSpeed='max' type="passenger"/>
    <flow id="passenger.136" begin="0" end="1" period="162" from="D1D0" departPos='random' departSpeed='max' type="passenger"/>
    <flow id="passenger.137" begin="0" end="1" period="162" from="A3B3" departPos='random' departSpeed='max' type="passenger"/>
    <flow id="passenger.138" begin="0" end="1" period="162" from="A3A2" departPos='random' departSpeed='max' type="passenger"/>
    <flow id="passenger.139" begin="0" end="1" period="162" from="B2B1" departPos='random' departSpeed='max' type="passenger"/>
    <flow id="passenger.140" begin="0" end="1" period="162" from="D2D1" departPos='random' departSpeed='max' type="passenger"/>
    <flow id="passenger.141" begin="0" end="1" period="162" from="D0D1" departPos='random' departSpeed='max' type="passenger"/>
    <flow id="passenger.142" begin="0" end="1" period="162" from="C2C1" departPos='random' departSpeed='max' type="passenger"/>
    <flow id="passenger.143" begin="0" end="1" period="162" from="E0D0" departPos='random' departSpeed='max' type="passenger"/>
    <flow id="passenger.144" begin="0" end="1" period="162" from="C0D0" departPos='random' departSpeed='max' type="passenger"/>
    <flow id="passenger.145" begin="0" end="1" period="162" from="A0A1" departPos='random' departSpeed='max' type="passenger"/>
    <flow id="passenger.146" begin="0" end="1" period="162" from="D0D1" departPos='random' departSpeed='max' type="passenger"/>
    <flow id="passenger.147" begin="0" end="1" period="162" from="D2E2" departPos='random' departSpeed='max' type="passenger"/>
    <flow id="passenger.148" begin="0" end="1" period="162" from="C1B1" departPos='random' departSpeed='max' type="passenger"/>
    <flow id="passenger.149" begin="0" end="1" period="162" from="A2A3" departPos='random' departSpeed='max' type="passenger"/>
    <flow id="passenger.150" begin="0" end="1" period="162" from="E2D2" departPos='random' departSpeed='max' type="passenger"/>
    <flow id="passenger.151" begin="0" end="1" period="162" from="D4E4" departPos='random' departSpeed='max' type="passenger"/>
    <flow id="passenger.152" begin="0" end="1" period="162" from="A4A3" departPos='random' departSpeed='max' type="passenger"/>
    <flow id="passenger.153" begin="0" end="1" period="162" from="B3A3" departPos='random' departSpeed='max' type="passenger"/>
    <flow id="passenger.154" begin="0" end="1" period="162" from="D3E3" departPos='random' departSpeed='max' type="passenger"/>
    <flow id="passenger.155" begin="0" end="1" period="162" from="E1E2" departPos='random' departSpeed='max' type="passenger"/>
    <flow id="passenger.156" begin="0" end="1" period="162" from="B1C1" departPos='random' departSpeed='max' type="passenger"/>
    <flow id="passenger.157" begin="0" end="1" period="162" from="D3D4" departPos='random' departSpeed='max' type="passenger"/>
    <flow id="passenger.158" begin="0" end="1" period="162" from="C0C1" departPos='random' departSpeed='max' type="passenger"/>
    <flow id="passenger.159" begin="0" end="1" period="162" from="A4B4" departPos='random' departSpeed='max' type="passenger"/>
    <flow id="passenger.160" begin="0" end="1" period="162" from="E1D1" departPos='random' departSpeed='max' type="passenger"/>
    <flow id="passenger.161" begin="0" end="1" period="162" from="D4C4" departPos='random' departSpeed='max' type="passenger"/>
</routes>
