<?xml version="1.0" encoding="utf-8"?>
<additional>
	<inductionLoop id="-2489_0_0" lane="-2489_0" pos="66.1" file="detectors.out.xml" freq="60"/>
	<inductionLoop id="-2489_1_0" lane="-2489_1" pos="66.1" file="detectors.out.xml" freq="60"/>
	<inductionLoop id="-2489_2_0" lane="-2489_2" pos="66.1" file="detectors.out.xml" freq="60"/>
	<inductionLoop id="-2489_3_0" lane="-2489_3" pos="66.1" file="detectors.out.xml" freq="60"/>
	<inductionLoop id="-2500_0_0" lane="-2500_0" pos="132.63" file="detectors.out.xml" freq="60"/>
	<inductionLoop id="-2500_1_0" lane="-2500_1" pos="132.63" file="detectors.out.xml" freq="60"/>
	<inductionLoop id="-2500_2_0" lane="-2500_2" pos="132.63" file="detectors.out.xml" freq="60"/>
	<inductionLoop id="-2500_3_0" lane="-2500_3" pos="132.63" file="detectors.out.xml" freq="60"/>
	<inductionLoop id="-2500_4_0" lane="-2500_4" pos="132.63" file="detectors.out.xml" freq="60"/>
	<inductionLoop id="-2613_0_0" lane="-2613_0" pos="89.64" file="detectors.out.xml" freq="60"/>
	<inductionLoop id="-2613_1_0" lane="-2613_1" pos="89.64" file="detectors.out.xml" freq="60"/>
	<inductionLoop id="-2613_2_0" lane="-2613_2" pos="89.64" file="detectors.out.xml" freq="60"/>
	<inductionLoop id="-2613_3_0" lane="-2613_3" pos="89.64" file="detectors.out.xml" freq="60"/>
	<inductionLoop id="-2613_4_0" lane="-2613_4" pos="89.64" file="detectors.out.xml" freq="60"/>
	<inductionLoop id="123867444_0_0" lane="123867444_0" pos="47.19" file="detectors.out.xml" freq="60"/>
	<inductionLoop id="123867444_1_0" lane="123867444_1" pos="47.19" file="detectors.out.xml" freq="60"/>
	<inductionLoop id="123867444_2_0" lane="123867444_2" pos="47.19" file="detectors.out.xml" freq="60"/>
	<inductionLoop id="123867444_3_0" lane="123867444_3" pos="47.19" file="detectors.out.xml" freq="60"/>
	<inductionLoop id="157607517_0_0" lane="157607517_0" pos="128.795" file="detectors.out.xml" freq="60"/>
	<inductionLoop id="157607517_1_0" lane="157607517_1" pos="128.795" file="detectors.out.xml" freq="60"/>
	<inductionLoop id="157607517_2_0" lane="157607517_2" pos="128.795" file="detectors.out.xml" freq="60"/>
	<inductionLoop id="157607517_3_0" lane="157607517_3" pos="128.795" file="detectors.out.xml" freq="60"/>
	<inductionLoop id="157607517_4_0" lane="157607517_4" pos="128.795" file="detectors.out.xml" freq="60"/>
	<inductionLoop id="157607691_0_0" lane="157607691_0" pos="96.78" file="detectors.out.xml" freq="60"/>
	<inductionLoop id="157607701_0_0" lane="157607701_0" pos="87.67" file="detectors.out.xml" freq="60"/>
	<inductionLoop id="157607701_1_0" lane="157607701_1" pos="87.67" file="detectors.out.xml" freq="60"/>
	<inductionLoop id="157607710_0_0" lane="157607710_0" pos="102.62" file="detectors.out.xml" freq="60"/>
	<inductionLoop id="157607756_0_0" lane="157607756_0" pos="95.435" file="detectors.out.xml" freq="60"/>
	<inductionLoop id="157607756_1_0" lane="157607756_1" pos="95.435" file="detectors.out.xml" freq="60"/>
	<inductionLoop id="157607759_0_0" lane="157607759_0" pos="216.375" file="detectors.out.xml" freq="60"/>
	<inductionLoop id="157751115_0_0" lane="157751115_0" pos="196.77" file="detectors.out.xml" freq="60"/>
	<inductionLoop id="157751130_0_0" lane="157751130_0" pos="161.885" file="detectors.out.xml" freq="60"/>
	<inductionLoop id="28414138_0_0" lane="28414138_0" pos="37.61" file="detectors.out.xml" freq="60"/>
	<inductionLoop id="28414138_1_0" lane="28414138_1" pos="37.61" file="detectors.out.xml" freq="60"/>
	<inductionLoop id="28414138_2_0" lane="28414138_2" pos="37.61" file="detectors.out.xml" freq="60"/>
	<inductionLoop id="28414138_3_0" lane="28414138_3" pos="37.61" file="detectors.out.xml" freq="60"/>
	<inductionLoop id="28414138_4_0" lane="28414138_4" pos="37.61" file="detectors.out.xml" freq="60"/>
	<inductionLoop id="28414139_0_0" lane="28414139_0" pos="14.465" file="detectors.out.xml" freq="60"/>
	<inductionLoop id="28414139_1_0" lane="28414139_1" pos="14.465" file="detectors.out.xml" freq="60"/>
	<inductionLoop id="28414139_2_0" lane="28414139_2" pos="14.465" file="detectors.out.xml" freq="60"/>
	<inductionLoop id="28414139_3_0" lane="28414139_3" pos="14.465" file="detectors.out.xml" freq="60"/>
	<inductionLoop id="28414139_4_0" lane="28414139_4" pos="14.465" file="detectors.out.xml" freq="60"/>
	<inductionLoop id="28414143_0_0" lane="28414143_0" pos="89.97" file="detectors.out.xml" freq="60"/>
	<inductionLoop id="28414147_0_0" lane="28414147_0" pos="108.45" file="detectors.out.xml" freq="60"/>
	<inductionLoop id="28414192_0_0" lane="28414192_0" pos="118.065" file="detectors.out.xml" freq="60"/>
	<inductionLoop id="28414192_1_0" lane="28414192_1" pos="118.065" file="detectors.out.xml" freq="60"/>
	<inductionLoop id="28414192_2_0" lane="28414192_2" pos="118.065" file="detectors.out.xml" freq="60"/>
	<inductionLoop id="28414192_3_0" lane="28414192_3" pos="118.065" file="detectors.out.xml" freq="60"/>
	<inductionLoop id="28414192_4_0" lane="28414192_4" pos="118.065" file="detectors.out.xml" freq="60"/>
	<inductionLoop id="28414195_0_0" lane="28414195_0" pos="34.07" file="detectors.out.xml" freq="60"/>
	<inductionLoop id="28414195_1_0" lane="28414195_1" pos="34.07" file="detectors.out.xml" freq="60"/>
	<inductionLoop id="28414195_2_0" lane="28414195_2" pos="34.07" file="detectors.out.xml" freq="60"/>
	<inductionLoop id="28414195_3_0" lane="28414195_3" pos="34.07" file="detectors.out.xml" freq="60"/>
	<inductionLoop id="28414195_4_0" lane="28414195_4" pos="34.07" file="detectors.out.xml" freq="60"/>
	<inductionLoop id="28414204_0_0" lane="28414204_0" pos="192.495" file="detectors.out.xml" freq="60"/>
	<inductionLoop id="28414204_1_0" lane="28414204_1" pos="192.495" file="detectors.out.xml" freq="60"/>
	<inductionLoop id="28414204_2_0" lane="28414204_2" pos="192.495" file="detectors.out.xml" freq="60"/>
	<inductionLoop id="28414207_0_0" lane="28414207_0" pos="29.48" file="detectors.out.xml" freq="60"/>
	<inductionLoop id="28414207_1_0" lane="28414207_1" pos="29.48" file="detectors.out.xml" freq="60"/>
	<inductionLoop id="28414207_2_0" lane="28414207_2" pos="29.48" file="detectors.out.xml" freq="60"/>
	<inductionLoop id="28414218_0_0" lane="28414218_0" pos="31.275" file="detectors.out.xml" freq="60"/>
	<inductionLoop id="28414221_0_0" lane="28414221_0" pos="29.265" file="detectors.out.xml" freq="60"/>
	<inductionLoop id="30832608_0_0" lane="30832608_0" pos="94.29" file="detectors.out.xml" freq="60"/>
	<inductionLoop id="30832608_1_0" lane="30832608_1" pos="94.29" file="detectors.out.xml" freq="60"/>
	<inductionLoop id="30832608_2_0" lane="30832608_2" pos="94.29" file="detectors.out.xml" freq="60"/>
	<inductionLoop id="30832608_3_0" lane="30832608_3" pos="94.29" file="detectors.out.xml" freq="60"/>
	<inductionLoop id="30832610_0_0" lane="30832610_0" pos="89.18" file="detectors.out.xml" freq="60"/>
	<inductionLoop id="30832610_1_0" lane="30832610_1" pos="89.18" file="detectors.out.xml" freq="60"/>
	<inductionLoop id="30832610_2_0" lane="30832610_2" pos="89.18" file="detectors.out.xml" freq="60"/>
	<inductionLoop id="30832610_3_0" lane="30832610_3" pos="89.18" file="detectors.out.xml" freq="60"/>
	<inductionLoop id="30832610_4_0" lane="30832610_4" pos="89.18" file="detectors.out.xml" freq="60"/>
	<inductionLoop id="394116560_0_0" lane="394116560_0" pos="12.62" file="detectors.out.xml" freq="60"/>
	<inductionLoop id="394116561_0_0" lane="394116561_0" pos="27.41" file="detectors.out.xml" freq="60"/>
	<inductionLoop id="394116561_1_0" lane="394116561_1" pos="27.41" file="detectors.out.xml" freq="60"/>
	<inductionLoop id="394118248_0_0" lane="394118248_0" pos="11.73" file="detectors.out.xml" freq="60"/>
	<inductionLoop id="394118248_1_0" lane="394118248_1" pos="11.73" file="detectors.out.xml" freq="60"/>
	<inductionLoop id="394118249_0_0" lane="394118249_0" pos="68.955" file="detectors.out.xml" freq="60"/>
	<inductionLoop id="394118250_0_0" lane="394118250_0" pos="15.045" file="detectors.out.xml" freq="60"/>
	<inductionLoop id="508479309_0_0" lane="508479309_0" pos="12.255" file="detectors.out.xml" freq="60"/>
	<inductionLoop id="508479309_1_0" lane="508479309_1" pos="12.255" file="detectors.out.xml" freq="60"/>
	<inductionLoop id="508479309_2_0" lane="508479309_2" pos="12.255" file="detectors.out.xml" freq="60"/>
	<inductionLoop id="508479309_3_0" lane="508479309_3" pos="12.255" file="detectors.out.xml" freq="60"/>
	<inductionLoop id="508479313_0_0" lane="508479313_0" pos="61.395" file="detectors.out.xml" freq="60"/>
	<inductionLoop id="508479313_1_0" lane="508479313_1" pos="61.395" file="detectors.out.xml" freq="60"/>
	<inductionLoop id="508479313_2_0" lane="508479313_2" pos="61.395" file="detectors.out.xml" freq="60"/>
	<inductionLoop id="508479317_0_0" lane="508479317_0" pos="79.41" file="detectors.out.xml" freq="60"/>
	<inductionLoop id="508479317_1_0" lane="508479317_1" pos="79.41" file="detectors.out.xml" freq="60"/>
	<inductionLoop id="508479317_2_0" lane="508479317_2" pos="79.41" file="detectors.out.xml" freq="60"/>
	<inductionLoop id="508479317_3_0" lane="508479317_3" pos="79.41" file="detectors.out.xml" freq="60"/>
	<inductionLoop id="508479336_0_0" lane="508479336_0" pos="53.695" file="detectors.out.xml" freq="60"/>
	<inductionLoop id="508479336_1_0" lane="508479336_1" pos="53.695" file="detectors.out.xml" freq="60"/>
	<inductionLoop id="508479336_2_0" lane="508479336_2" pos="53.695" file="detectors.out.xml" freq="60"/>
	<inductionLoop id="508479336_3_0" lane="508479336_3" pos="53.695" file="detectors.out.xml" freq="60"/>
	<inductionLoop id="508479340_0_0" lane="508479340_0" pos="57.34" file="detectors.out.xml" freq="60"/>
	<inductionLoop id="508479343_0_0" lane="508479343_0" pos="109.905" file="detectors.out.xml" freq="60"/>
	<inductionLoop id="508479350_0_0" lane="508479350_0" pos="59.51" file="detectors.out.xml" freq="60"/>
	<inductionLoop id="508479350_1_0" lane="508479350_1" pos="59.51" file="detectors.out.xml" freq="60"/>
	<inductionLoop id="508479350_2_0" lane="508479350_2" pos="59.51" file="detectors.out.xml" freq="60"/>
	<inductionLoop id="508479350_3_0" lane="508479350_3" pos="59.51" file="detectors.out.xml" freq="60"/>
	<inductionLoop id="508479350_4_0" lane="508479350_4" pos="59.51" file="detectors.out.xml" freq="60"/>
	<inductionLoop id="508479350_5_0" lane="508479350_5" pos="59.51" file="detectors.out.xml" freq="60"/>
	<inductionLoop id="508479355_0_0" lane="508479355_0" pos="86.965" file="detectors.out.xml" freq="60"/>
	<inductionLoop id="508479355_1_0" lane="508479355_1" pos="86.965" file="detectors.out.xml" freq="60"/>
	<inductionLoop id="508479355_2_0" lane="508479355_2" pos="86.965" file="detectors.out.xml" freq="60"/>
	<inductionLoop id="508479355_3_0" lane="508479355_3" pos="86.965" file="detectors.out.xml" freq="60"/>
	<inductionLoop id="508479355_4_0" lane="508479355_4" pos="86.965" file="detectors.out.xml" freq="60"/>
	<inductionLoop id="508479360_0_0" lane="508479360_0" pos="52.075" file="detectors.out.xml" freq="60"/>
	<inductionLoop id="508479360_1_0" lane="508479360_1" pos="52.075" file="detectors.out.xml" freq="60"/>
	<inductionLoop id="508479360_2_0" lane="508479360_2" pos="52.075" file="detectors.out.xml" freq="60"/>
	<inductionLoop id="508479360_3_0" lane="508479360_3" pos="52.075" file="detectors.out.xml" freq="60"/>
	<inductionLoop id="508479360_4_0" lane="508479360_4" pos="52.075" file="detectors.out.xml" freq="60"/>
	<inductionLoop id="508479360_5_0" lane="508479360_5" pos="52.075" file="detectors.out.xml" freq="60"/>
	<inductionLoop id="508479365_0_0" lane="508479365_0" pos="119.36" file="detectors.out.xml" freq="60"/>
	<inductionLoop id="508479365_1_0" lane="508479365_1" pos="119.36" file="detectors.out.xml" freq="60"/>
	<inductionLoop id="508479365_2_0" lane="508479365_2" pos="119.36" file="detectors.out.xml" freq="60"/>
	<inductionLoop id="508479365_3_0" lane="508479365_3" pos="119.36" file="detectors.out.xml" freq="60"/>
	<inductionLoop id="508479365_4_0" lane="508479365_4" pos="119.36" file="detectors.out.xml" freq="60"/>
	<inductionLoop id="544301010_0_0" lane="544301010_0" pos="47.275" file="detectors.out.xml" freq="60"/>
	<inductionLoop id="544301010_1_0" lane="544301010_1" pos="47.275" file="detectors.out.xml" freq="60"/>
	<inductionLoop id="544301010_2_0" lane="544301010_2" pos="47.275" file="detectors.out.xml" freq="60"/>
	<inductionLoop id="544301010_3_0" lane="544301010_3" pos="47.275" file="detectors.out.xml" freq="60"/>
	<inductionLoop id="544301010_4_0" lane="544301010_4" pos="47.275" file="detectors.out.xml" freq="60"/>
	<inductionLoop id="851553864_0_0" lane="851553864_0" pos="197.31" file="detectors.out.xml" freq="60"/>
	<inductionLoop id="851553864_1_0" lane="851553864_1" pos="197.31" file="detectors.out.xml" freq="60"/>
	<inductionLoop id="851553864_2_0" lane="851553864_2" pos="197.31" file="detectors.out.xml" freq="60"/>
	<inductionLoop id="851553864_3_0" lane="851553864_3" pos="197.31" file="detectors.out.xml" freq="60"/>
	<inductionLoop id="851568240_0_0" lane="851568240_0" pos="100.545" file="detectors.out.xml" freq="60"/>
	<inductionLoop id="851568240_1_0" lane="851568240_1" pos="100.545" file="detectors.out.xml" freq="60"/>
	<inductionLoop id="851568240_2_0" lane="851568240_2" pos="100.545" file="detectors.out.xml" freq="60"/>
	<inductionLoop id="851568240_3_0" lane="851568240_3" pos="100.545" file="detectors.out.xml" freq="60"/>
	<inductionLoop id="851568240_4_0" lane="851568240_4" pos="100.545" file="detectors.out.xml" freq="60"/>
	<inductionLoop id="879560477_0_0" lane="879560477_0" pos="179.665" file="detectors.out.xml" freq="60"/>
	<inductionLoop id="879560477_1_0" lane="879560477_1" pos="179.665" file="detectors.out.xml" freq="60"/>
	<inductionLoop id="879560477_2_0" lane="879560477_2" pos="179.665" file="detectors.out.xml" freq="60"/>
	<inductionLoop id="879560477_3_0" lane="879560477_3" pos="179.665" file="detectors.out.xml" freq="60"/>
	<inductionLoop id="879560477_4_0" lane="879560477_4" pos="179.665" file="detectors.out.xml" freq="60"/>
	<inductionLoop id="8924864_0_0" lane="8924864_0" pos="64.195" file="detectors.out.xml" freq="60"/>
	<inductionLoop id="8924864_1_0" lane="8924864_1" pos="64.195" file="detectors.out.xml" freq="60"/>
	<inductionLoop id="961214960_0_0" lane="961214960_0" pos="21.76" file="detectors.out.xml" freq="60"/>
	<inductionLoop id="961214960_1_0" lane="961214960_1" pos="21.76" file="detectors.out.xml" freq="60"/>
	<inductionLoop id="961214960_2_0" lane="961214960_2" pos="21.76" file="detectors.out.xml" freq="60"/>
	<inductionLoop id="961214961_0_0" lane="961214961_0" pos="34.47" file="detectors.out.xml" freq="60"/>
	<inductionLoop id="961214961_1_0" lane="961214961_1" pos="34.47" file="detectors.out.xml" freq="60"/>
	<inductionLoop id="961214961_2_0" lane="961214961_2" pos="34.47" file="detectors.out.xml" freq="60"/>
	<inductionLoop id="961214961_3_0" lane="961214961_3" pos="34.47" file="detectors.out.xml" freq="60"/>
	<inductionLoop id="961214962_0_0" lane="961214962_0" pos="15.675" file="detectors.out.xml" freq="60"/>
	<inductionLoop id="961214962_1_0" lane="961214962_1" pos="15.675" file="detectors.out.xml" freq="60"/>
	<inductionLoop id="961214962_2_0" lane="961214962_2" pos="15.675" file="detectors.out.xml" freq="60"/>
	<inductionLoop id="961214963_0_0" lane="961214963_0" pos="32.865" file="detectors.out.xml" freq="60"/>
	<inductionLoop id="961214963_1_0" lane="961214963_1" pos="32.865" file="detectors.out.xml" freq="60"/>
	<inductionLoop id="961214963_2_0" lane="961214963_2" pos="32.865" file="detectors.out.xml" freq="60"/>
	<inductionLoop id="961214965_0_0" lane="961214965_0" pos="13.205" file="detectors.out.xml" freq="60"/>
	<inductionLoop id="961214965_1_0" lane="961214965_1" pos="13.205" file="detectors.out.xml" freq="60"/>
	<inductionLoop id="961214965_2_0" lane="961214965_2" pos="13.205" file="detectors.out.xml" freq="60"/>
	<inductionLoop id="961214965_3_0" lane="961214965_3" pos="13.205" file="detectors.out.xml" freq="60"/>
	<inductionLoop id="961214965_4_0" lane="961214965_4" pos="13.205" file="detectors.out.xml" freq="60"/>
	<inductionLoop id="961214966_0_0" lane="961214966_0" pos="14.685" file="detectors.out.xml" freq="60"/>
	<inductionLoop id="961214966_1_0" lane="961214966_1" pos="14.685" file="detectors.out.xml" freq="60"/>
	<inductionLoop id="961214966_2_0" lane="961214966_2" pos="14.685" file="detectors.out.xml" freq="60"/>
	<inductionLoop id="961214966_3_0" lane="961214966_3" pos="14.685" file="detectors.out.xml" freq="60"/>
	<inductionLoop id="961214966_4_0" lane="961214966_4" pos="14.685" file="detectors.out.xml" freq="60"/>
	<inductionLoop id="961214966_5_0" lane="961214966_5" pos="14.685" file="detectors.out.xml" freq="60"/>
	<inductionLoop id="961214972_0_0" lane="961214972_0" pos="60.86" file="detectors.out.xml" freq="60"/>
	<inductionLoop id="961214972_1_0" lane="961214972_1" pos="60.86" file="detectors.out.xml" freq="60"/>
	<inductionLoop id="961214972_2_0" lane="961214972_2" pos="60.86" file="detectors.out.xml" freq="60"/>
	<inductionLoop id="961214972_3_0" lane="961214972_3" pos="60.86" file="detectors.out.xml" freq="60"/>
	<inductionLoop id="961214972_4_0" lane="961214972_4" pos="60.86" file="detectors.out.xml" freq="60"/>
	<inductionLoop id="961214973_0_0" lane="961214973_0" pos="94.05" file="detectors.out.xml" freq="60"/>
	<inductionLoop id="961214973_1_0" lane="961214973_1" pos="94.05" file="detectors.out.xml" freq="60"/>
	<inductionLoop id="961214973_2_0" lane="961214973_2" pos="94.05" file="detectors.out.xml" freq="60"/>
	<inductionLoop id="961214973_3_0" lane="961214973_3" pos="94.05" file="detectors.out.xml" freq="60"/>
	<inductionLoop id="961214973_4_0" lane="961214973_4" pos="94.05" file="detectors.out.xml" freq="60"/>
	<inductionLoop id="961214975_0_0" lane="961214975_0" pos="70.365" file="detectors.out.xml" freq="60"/>
	<inductionLoop id="961214976_0_0" lane="961214976_0" pos="27.165" file="detectors.out.xml" freq="60"/>
</additional>
