<?xml version="1.0" encoding="utf-8"?>
<additional>
	<vType id="passenger" vClass="passenger"/>
	<vType id="bus" vClass="bus"/>
	<flow id="passenger.1" departSpeed="max" departLane="best" number="0" type="passenger" begin="0" end="1">
		<route id="passenger.1" edges="-2489 394118249 157607756 28414221"/>
	</flow>
	<flow id="bus.1" departSpeed="max" departLane="best" number="0" type="bus" begin="0" end="1">
		<route id="bus.1" edges="-2489 394118249 157607756 28414221"/>
	</flow>
	<flow id="passenger.2" departSpeed="max" departLane="best" number="0" type="passenger" begin="0" end="1">
		<route id="passenger.2" edges="-2489 394118249 157607756 394118248"/>
	</flow>
	<flow id="bus.2" departSpeed="max" departLane="best" number="0" type="bus" begin="0" end="1">
		<route id="bus.2" edges="-2489 394118249 157607756 394118248"/>
	</flow>
	<flow id="passenger.3" departSpeed="max" departLane="best" number="0" type="passenger" begin="0" end="1">
		<route id="passenger.3" edges="-2489 851553864 28414195 28414192 961214969 961214966 28414138 961214965 961214975 961214976 508479360 157607691 28414148 961214970 123867444 28414147 508479350 961214974 508479355 961214973 961214972"/>
	</flow>
	<flow id="bus.3" departSpeed="max" departLane="best" number="0" type="bus" begin="0" end="1">
		<route id="bus.3" edges="-2489 851553864 28414195 28414192 961214969 961214966 28414138 961214965 961214975 961214976 508479360 157607691 28414148 961214970 123867444 28414147 508479350 961214974 508479355 961214973 961214972"/>
	</flow>
	<flow id="passenger.4" departSpeed="max" departLane="best" number="0" type="passenger" begin="0" end="1">
		<route id="passenger.4" edges="-2489 851553864 28414195 28414192 961214969 961214966 28414138 961214965 961214975 961214976 508479360 157607691 28414148 961214970 123867444 508479309 508479313 961214964 961214963 28414207 961214962 157607710 394116561"/>
	</flow>
	<flow id="bus.4" departSpeed="max" departLane="best" number="0" type="bus" begin="0" end="1">
		<route id="bus.4" edges="-2489 851553864 28414195 28414192 961214969 961214966 28414138 961214965 961214975 961214976 508479360 157607691 28414148 961214970 123867444 508479309 508479313 961214964 961214963 28414207 961214962 157607710 394116561"/>
	</flow>
	<flow id="passenger.5" departSpeed="max" departLane="best" number="0" type="passenger" begin="0" end="1">
		<route id="passenger.5" edges="-2489 851553864 28414195 28414192 961214969 961214966 28414138 961214965 961214975 961214976 508479360 157607691 28414148 961214970 123867444 508479309 508479313 961214964 961214963 28414207 961214962 28414204 961214961 961214960"/>
	</flow>
	<flow id="bus.5" departSpeed="max" departLane="best" number="0" type="bus" begin="0" end="1">
		<route id="bus.5" edges="-2489 851553864 28414195 28414192 961214969 961214966 28414138 961214965 961214975 961214976 508479360 157607691 28414148 961214970 123867444 508479309 508479313 961214964 961214963 28414207 961214962 28414204 961214961 961214960"/>
	</flow>
	<flow id="passenger.6" departSpeed="max" departLane="best" number="7" type="passenger" begin="0" end="1">
		<route id="passenger.6" edges="-2489 851553864 28414195 28414192 961214969 961214966 28414138 961214965 961214975 961214976 508479360 508479365 -2610 -2613 544301010"/>
	</flow>
	<flow id="bus.6" departSpeed="max" departLane="best" number="1" type="bus" begin="0" end="1">
		<route id="bus.6" edges="-2489 851553864 28414195 28414192 961214969 961214966 28414138 961214965 961214975 961214976 508479360 508479365 -2610 -2613 544301010"/>
	</flow>
	<flow id="passenger.7" departSpeed="max" departLane="best" number="81" type="passenger" begin="0" end="1">
		<route id="passenger.7" edges="-2489 851553864 28414195 28414192 961214969 961214966 28414138 961214965 28414139 508479336 30832610"/>
	</flow>
	<flow id="bus.7" departSpeed="max" departLane="best" number="11" type="bus" begin="0" end="1">
		<route id="bus.7" edges="-2489 851553864 28414195 28414192 961214969 961214966 28414138 961214965 28414139 508479336 30832610"/>
	</flow>
	<flow id="passenger.8" departSpeed="max" departLane="best" number="2" type="passenger" begin="0" end="1">
		<route id="passenger.8" edges="-2500 417527262 157751115 30832610"/>
	</flow>
	<flow id="bus.8" departSpeed="max" departLane="best" number="0" type="bus" begin="0" end="1">
		<route id="bus.8" edges="-2500 417527262 157751115 30832610"/>
	</flow>
	<flow id="passenger.9" departSpeed="max" departLane="best" number="2" type="passenger" begin="0" end="1">
		<route id="passenger.9" edges="-2500 157607517 508479360 157607691 28414148 961214970 123867444 28414147 508479350 961214974 508479355 961214973 961214972"/>
	</flow>
	<flow id="bus.9" departSpeed="max" departLane="best" number="0" type="bus" begin="0" end="1">
		<route id="bus.9" edges="-2500 157607517 508479360 157607691 28414148 961214970 123867444 28414147 508479350 961214974 508479355 961214973 961214972"/>
	</flow>
	<flow id="passenger.10" departSpeed="max" departLane="best" number="0" type="passenger" begin="0" end="1">
		<route id="passenger.10" edges="-2500 157607517 508479360 157607691 28414148 961214970 123867444 508479309 508479313 961214964 961214963 28414207 961214962 157607710 394116561"/>
	</flow>
	<flow id="bus.10" departSpeed="max" departLane="best" number="0" type="bus" begin="0" end="1">
		<route id="bus.10" edges="-2500 157607517 508479360 157607691 28414148 961214970 123867444 508479309 508479313 961214964 961214963 28414207 961214962 157607710 394116561"/>
	</flow>
	<flow id="passenger.11" departSpeed="max" departLane="best" number="6" type="passenger" begin="0" end="1">
		<route id="passenger.11" edges="-2500 157607517 508479360 157607691 28414148 961214970 123867444 508479309 508479313 961214964 961214963 28414207 961214962 28414204 961214961 961214960"/>
	</flow>
	<flow id="bus.11" departSpeed="max" departLane="best" number="1" type="bus" begin="0" end="1">
		<route id="bus.11" edges="-2500 157607517 508479360 157607691 28414148 961214970 123867444 508479309 508479313 961214964 961214963 28414207 961214962 28414204 961214961 961214960"/>
	</flow>
	<flow id="passenger.12" departSpeed="max" departLane="best" number="82" type="passenger" begin="0" end="1">
		<route id="passenger.12" edges="-2500 157607517 508479360 508479365 -2610 -2613 544301010"/>
	</flow>
	<flow id="bus.12" departSpeed="max" departLane="best" number="10" type="bus" begin="0" end="1">
		<route id="bus.12" edges="-2500 157607517 508479360 508479365 -2610 -2613 544301010"/>
	</flow>
	<flow id="passenger.13" departSpeed="max" departLane="best" number="0" type="passenger" begin="0" end="1">
		<route id="passenger.13" edges="157607717 157607701 508479343 961214961 961214960"/>
	</flow>
	<flow id="bus.13" departSpeed="max" departLane="best" number="0" type="bus" begin="0" end="1">
		<route id="bus.13" edges="157607717 157607701 508479343 961214961 961214960"/>
	</flow>
	<flow id="passenger.14" departSpeed="max" departLane="best" number="0" type="passenger" begin="0" end="1">
		<route id="passenger.14" edges="28414218 8924864 508479340 28414195 28414192 961214969 961214966 28414138 961214965 961214975 961214976 508479360 157607691 28414148 961214970 123867444 28414147 508479350 961214974 508479355 961214973 961214972"/>
	</flow>
	<flow id="bus.14" departSpeed="max" departLane="best" number="0" type="bus" begin="0" end="1">
		<route id="bus.14" edges="28414218 8924864 508479340 28414195 28414192 961214969 961214966 28414138 961214965 961214975 961214976 508479360 157607691 28414148 961214970 123867444 28414147 508479350 961214974 508479355 961214973 961214972"/>
	</flow>
	<flow id="passenger.15" departSpeed="max" departLane="best" number="0" type="passenger" begin="0" end="1">
		<route id="passenger.15" edges="28414218 8924864 508479340 28414195 28414192 961214969 961214966 28414138 961214965 961214975 961214976 508479360 157607691 28414148 961214970 123867444 508479309 508479313 961214964 961214963 28414207 961214962 157607710 394116561"/>
	</flow>
	<flow id="bus.15" departSpeed="max" departLane="best" number="0" type="bus" begin="0" end="1">
		<route id="bus.15" edges="28414218 8924864 508479340 28414195 28414192 961214969 961214966 28414138 961214965 961214975 961214976 508479360 157607691 28414148 961214970 123867444 508479309 508479313 961214964 961214963 28414207 961214962 157607710 394116561"/>
	</flow>
	<flow id="passenger.16" departSpeed="max" departLane="best" number="0" type="passenger" begin="0" end="1">
		<route id="passenger.16" edges="28414218 8924864 508479340 28414195 28414192 961214969 961214966 28414138 961214965 961214975 961214976 508479360 157607691 28414148 961214970 123867444 508479309 508479313 961214964 961214963 28414207 961214962 28414204 961214961 961214960"/>
	</flow>
	<flow id="bus.16" departSpeed="max" departLane="best" number="0" type="bus" begin="0" end="1">
		<route id="bus.16" edges="28414218 8924864 508479340 28414195 28414192 961214969 961214966 28414138 961214965 961214975 961214976 508479360 157607691 28414148 961214970 123867444 508479309 508479313 961214964 961214963 28414207 961214962 28414204 961214961 961214960"/>
	</flow>
	<flow id="passenger.17" departSpeed="max" departLane="best" number="0" type="passenger" begin="0" end="1">
		<route id="passenger.17" edges="28414218 8924864 508479340 28414195 28414192 961214969 961214966 28414138 961214965 961214975 961214976 508479360 508479365 -2610 -2613 544301010"/>
	</flow>
	<flow id="bus.17" departSpeed="max" departLane="best" number="0" type="bus" begin="0" end="1">
		<route id="bus.17" edges="28414218 8924864 508479340 28414195 28414192 961214969 961214966 28414138 961214965 961214975 961214976 508479360 508479365 -2610 -2613 544301010"/>
	</flow>
	<flow id="passenger.18" departSpeed="max" departLane="best" number="1" type="passenger" begin="0" end="1">
		<route id="passenger.18" edges="28414218 8924864 508479340 28414195 28414192 961214969 961214966 28414138 961214965 28414139 508479336 30832610"/>
	</flow>
	<flow id="bus.18" departSpeed="max" departLane="best" number="0" type="bus" begin="0" end="1">
		<route id="bus.18" edges="28414218 8924864 508479340 28414195 28414192 961214969 961214966 28414138 961214965 28414139 508479336 30832610"/>
	</flow>
	<flow id="passenger.19" departSpeed="max" departLane="best" number="9" type="passenger" begin="0" end="1">
		<route id="passenger.19" edges="30832608 157607759 -2613 544301010"/>
	</flow>
	<flow id="bus.19" departSpeed="max" departLane="best" number="1" type="bus" begin="0" end="1">
		<route id="bus.19" edges="30832608 157607759 -2613 544301010"/>
	</flow>
	<flow id="passenger.20" departSpeed="max" departLane="best" number="1" type="passenger" begin="0" end="1">
		<route id="passenger.20" edges="30832608 508479317 961214970 123867444 28414147 508479350 417510574 28414143 961214969 961214966 28414138 961214965 28414139 508479336 30832610"/>
	</flow>
	<flow id="bus.20" departSpeed="max" departLane="best" number="0" type="bus" begin="0" end="1">
		<route id="bus.20" edges="30832608 508479317 961214970 123867444 28414147 508479350 417510574 28414143 961214969 961214966 28414138 961214965 28414139 508479336 30832610"/>
	</flow>
	<flow id="passenger.21" departSpeed="max" departLane="best" number="18" type="passenger" begin="0" end="1">
		<route id="passenger.21" edges="30832608 508479317 961214970 123867444 28414147 508479350 961214974 508479355 961214973 961214972"/>
	</flow>
	<flow id="bus.21" departSpeed="max" departLane="best" number="2" type="bus" begin="0" end="1">
		<route id="bus.21" edges="30832608 508479317 961214970 123867444 28414147 508479350 961214974 508479355 961214973 961214972"/>
	</flow>
	<flow id="passenger.22" departSpeed="max" departLane="best" number="3" type="passenger" begin="0" end="1">
		<route id="passenger.22" edges="30832608 508479317 961214970 123867444 508479309 508479313 961214964 961214963 28414207 961214962 157607710 394116561"/>
	</flow>
	<flow id="bus.22" departSpeed="max" departLane="best" number="0" type="bus" begin="0" end="1">
		<route id="bus.22" edges="30832608 508479317 961214970 123867444 508479309 508479313 961214964 961214963 28414207 961214962 157607710 394116561"/>
	</flow>
	<flow id="passenger.23" departSpeed="max" departLane="best" number="60" type="passenger" begin="0" end="1">
		<route id="passenger.23" edges="30832608 508479317 961214970 123867444 508479309 508479313 961214964 961214963 28414207 961214962 28414204 961214961 961214960"/>
	</flow>
	<flow id="bus.23" departSpeed="max" departLane="best" number="6" type="bus" begin="0" end="1">
		<route id="bus.23" edges="30832608 508479317 961214970 123867444 508479309 508479313 961214964 961214963 28414207 961214962 28414204 961214961 961214960"/>
	</flow>
	<flow id="passenger.24" departSpeed="max" departLane="best" number="0" type="passenger" begin="0" end="1">
		<route id="passenger.24" edges="394116560 8924864 508479340 28414195 28414192 961214969 961214966 28414138 961214965 961214975 961214976 508479360 157607691 28414148 961214970 123867444 28414147 508479350 961214974 508479355 961214973 961214972"/>
	</flow>
	<flow id="bus.24" departSpeed="max" departLane="best" number="0" type="bus" begin="0" end="1">
		<route id="bus.24" edges="394116560 8924864 508479340 28414195 28414192 961214969 961214966 28414138 961214965 961214975 961214976 508479360 157607691 28414148 961214970 123867444 28414147 508479350 961214974 508479355 961214973 961214972"/>
	</flow>
	<flow id="passenger.25" departSpeed="max" departLane="best" number="0" type="passenger" begin="0" end="1">
		<route id="passenger.25" edges="394116560 8924864 508479340 28414195 28414192 961214969 961214966 28414138 961214965 961214975 961214976 508479360 157607691 28414148 961214970 123867444 508479309 508479313 961214964 961214963 28414207 961214962 157607710 394116561"/>
	</flow>
	<flow id="bus.25" departSpeed="max" departLane="best" number="0" type="bus" begin="0" end="1">
		<route id="bus.25" edges="394116560 8924864 508479340 28414195 28414192 961214969 961214966 28414138 961214965 961214975 961214976 508479360 157607691 28414148 961214970 123867444 508479309 508479313 961214964 961214963 28414207 961214962 157607710 394116561"/>
	</flow>
	<flow id="passenger.26" departSpeed="max" departLane="best" number="0" type="passenger" begin="0" end="1">
		<route id="passenger.26" edges="394116560 8924864 508479340 28414195 28414192 961214969 961214966 28414138 961214965 961214975 961214976 508479360 157607691 28414148 961214970 123867444 508479309 508479313 961214964 961214963 28414207 961214962 28414204 961214961 961214960"/>
	</flow>
	<flow id="bus.26" departSpeed="max" departLane="best" number="0" type="bus" begin="0" end="1">
		<route id="bus.26" edges="394116560 8924864 508479340 28414195 28414192 961214969 961214966 28414138 961214965 961214975 961214976 508479360 157607691 28414148 961214970 123867444 508479309 508479313 961214964 961214963 28414207 961214962 28414204 961214961 961214960"/>
	</flow>
	<flow id="passenger.27" departSpeed="max" departLane="best" number="0" type="passenger" begin="0" end="1">
		<route id="passenger.27" edges="394116560 8924864 508479340 28414195 28414192 961214969 961214966 28414138 961214965 961214975 961214976 508479360 508479365 -2610 -2613 544301010"/>
	</flow>
	<flow id="bus.27" departSpeed="max" departLane="best" number="0" type="bus" begin="0" end="1">
		<route id="bus.27" edges="394116560 8924864 508479340 28414195 28414192 961214969 961214966 28414138 961214965 961214975 961214976 508479360 508479365 -2610 -2613 544301010"/>
	</flow>
	<flow id="passenger.28" departSpeed="max" departLane="best" number="1" type="passenger" begin="0" end="1">
		<route id="passenger.28" edges="394116560 8924864 508479340 28414195 28414192 961214969 961214966 28414138 961214965 28414139 508479336 30832610"/>
	</flow>
	<flow id="bus.28" departSpeed="max" departLane="best" number="0" type="bus" begin="0" end="1">
		<route id="bus.28" edges="394116560 8924864 508479340 28414195 28414192 961214969 961214966 28414138 961214965 28414139 508479336 30832610"/>
	</flow>
	<flow id="passenger.29" departSpeed="max" departLane="best" number="0" type="passenger" begin="0" end="1">
		<route id="passenger.29" edges="394118250 157607701 508479343 961214961 961214960"/>
	</flow>
	<flow id="bus.29" departSpeed="max" departLane="best" number="0" type="bus" begin="0" end="1">
		<route id="bus.29" edges="394118250 157607701 508479343 961214961 961214960"/>
	</flow>
	<flow id="passenger.30" departSpeed="max" departLane="best" number="0" type="passenger" begin="0" end="1">
		<route id="passenger.30" edges="879560477 417510458 157751130 961214964 961214963 28414207 961214962 157607710 394116561"/>
	</flow>
	<flow id="bus.30" departSpeed="max" departLane="best" number="0" type="bus" begin="0" end="1">
		<route id="bus.30" edges="879560477 417510458 157751130 961214964 961214963 28414207 961214962 157607710 394116561"/>
	</flow>
	<flow id="passenger.31" departSpeed="max" departLane="best" number="4" type="passenger" begin="0" end="1">
		<route id="passenger.31" edges="879560477 417510458 157751130 961214964 961214963 28414207 961214962 28414204 961214961 961214960"/>
	</flow>
	<flow id="bus.31" departSpeed="max" departLane="best" number="0" type="bus" begin="0" end="1">
		<route id="bus.31" edges="879560477 417510458 157751130 961214964 961214963 28414207 961214962 28414204 961214961 961214960"/>
	</flow>
	<flow id="passenger.32" departSpeed="max" departLane="best" number="0" type="passenger" begin="0" end="1">
		<route id="passenger.32" edges="879560477 851568240 508479350 417510574 28414143 961214969 961214966 28414138 961214965 961214975 961214976 508479360 508479365 -2610 -2613 544301010"/>
	</flow>
	<flow id="bus.32" departSpeed="max" departLane="best" number="0" type="bus" begin="0" end="1">
		<route id="bus.32" edges="879560477 851568240 508479350 417510574 28414143 961214969 961214966 28414138 961214965 961214975 961214976 508479360 508479365 -2610 -2613 544301010"/>
	</flow>
	<flow id="passenger.33" departSpeed="max" departLane="best" number="5" type="passenger" begin="0" end="1">
		<route id="passenger.33" edges="879560477 851568240 508479350 417510574 28414143 961214969 961214966 28414138 961214965 28414139 508479336 30832610"/>
	</flow>
	<flow id="bus.33" departSpeed="max" departLane="best" number="1" type="bus" begin="0" end="1">
		<route id="bus.33" edges="879560477 851568240 508479350 417510574 28414143 961214969 961214966 28414138 961214965 28414139 508479336 30832610"/>
	</flow>
	<flow id="passenger.34" departSpeed="max" departLane="best" number="83" type="passenger" begin="0" end="1">
		<route id="passenger.34" edges="879560477 851568240 508479350 961214974 508479355 961214973 961214972"/>
	</flow>
	<flow id="bus.34" departSpeed="max" departLane="best" number="11" type="bus" begin="0" end="1">
		<route id="bus.34" edges="879560477 851568240 508479350 961214974 508479355 961214973 961214972"/>
	</flow>
</additional>
