<?xml version="1.0" encoding="utf-8"?>
<additional>
	<inductionLoop id="-1305344289_0_0" lane="-1305344289_0" pos="200" file="detectors.out.xml" freq="60"/>
	<inductionLoop id="1147005771_0_0" lane="1147005771_0" pos="147" file="detectors.out.xml" freq="60"/>
	<inductionLoop id="1151195218_0_0" lane="1151195218_0" pos="163" file="detectors.out.xml" freq="60"/>
	<inductionLoop id="1151195219_0_0" lane="1151195219_0" pos="140" file="detectors.out.xml" freq="60"/>
	<inductionLoop id="1268311823_0_0" lane="1268311823_0" pos="152" file="detectors.out.xml" freq="60"/>
	<inductionLoop id="1268311830_0_0" lane="1268311830_0" pos="151" file="detectors.out.xml" freq="60"/>
	<inductionLoop id="1268311831_0_0" lane="1268311831_0" pos="199" file="detectors.out.xml" freq="60"/>
	<inductionLoop id="1305344289_0_0" lane="1305344289_0" pos="199" file="detectors.out.xml" freq="60"/>
	<inductionLoop id="1305344292_0_0" lane="1305344292_0" pos="53" file="detectors.out.xml" freq="60"/>
	<inductionLoop id="1305344294_0_0" lane="1305344294_0" pos="46" file="detectors.out.xml" freq="60"/>
	<inductionLoop id="1305344295_0_0" lane="1305344295_0" pos="59" file="detectors.out.xml" freq="60"/>
	<inductionLoop id="1305344296_0_0" lane="1305344296_0" pos="55" file="detectors.out.xml" freq="60"/>
	<inductionLoop id="1305344297_0_0" lane="1305344297_0" pos="133" file="detectors.out.xml" freq="60"/>
	<inductionLoop id="1305344298_0_0" lane="1305344298_0" pos="43" file="detectors.out.xml" freq="60"/>
	<inductionLoop id="1305344299_0_0" lane="1305344299_0" pos="49" file="detectors.out.xml" freq="60"/>
	<inductionLoop id="1305344303_0_0" lane="1305344303_0" pos="73" file="detectors.out.xml" freq="60"/>
	<inductionLoop id="1305344304_0_0" lane="1305344304_0" pos="147" file="detectors.out.xml" freq="60"/>
	<inductionLoop id="1305344305_0_0" lane="1305344305_0" pos="40" file="detectors.out.xml" freq="60"/>
	<inductionLoop id="1305344306_0_0" lane="1305344306_0" pos="90" file="detectors.out.xml" freq="60"/>
	<inductionLoop id="1305344307_0_0" lane="1305344307_0" pos="143" file="detectors.out.xml" freq="60"/>
	<inductionLoop id="1305344308_0_0" lane="1305344308_0" pos="103" file="detectors.out.xml" freq="60"/>
	<inductionLoop id="1305344317_0_0" lane="1305344317_0" pos="61" file="detectors.out.xml" freq="60"/>
	<inductionLoop id="1305344319_0_0" lane="1305344319_0" pos="36" file="detectors.out.xml" freq="60"/>
	<inductionLoop id="1305344322_0_0" lane="1305344322_0" pos="62" file="detectors.out.xml" freq="60"/>
	<inductionLoop id="1305344325_0_0" lane="1305344325_0" pos="74" file="detectors.out.xml" freq="60"/>
	<inductionLoop id="1305344326_0_0" lane="1305344326_0" pos="97" file="detectors.out.xml" freq="60"/>
	<inductionLoop id="1305344327_0_0" lane="1305344327_0" pos="84" file="detectors.out.xml" freq="60"/>
	<inductionLoop id="1305344328_0_0" lane="1305344328_0" pos="69" file="detectors.out.xml" freq="60"/>
	<inductionLoop id="1305344329_0_0" lane="1305344329_0" pos="196" file="detectors.out.xml" freq="60"/>
	<inductionLoop id="1305344330_0_0" lane="1305344330_0" pos="60" file="detectors.out.xml" freq="60"/>
	<inductionLoop id="1305344332_0_0" lane="1305344332_0" pos="69" file="detectors.out.xml" freq="60"/>
	<inductionLoop id="1305344333_0_0" lane="1305344333_0" pos="187" file="detectors.out.xml" freq="60"/>
	<inductionLoop id="1305344334_0_0" lane="1305344334_0" pos="202" file="detectors.out.xml" freq="60"/>
	<inductionLoop id="1305344335_0_0" lane="1305344335_0" pos="203" file="detectors.out.xml" freq="60"/>
	<inductionLoop id="1305344336_0_0" lane="1305344336_0" pos="187" file="detectors.out.xml" freq="60"/>
	<inductionLoop id="1305344339_0_0" lane="1305344339_0" pos="203" file="detectors.out.xml" freq="60"/>
	<inductionLoop id="1305344342_0_0" lane="1305344342_0" pos="74" file="detectors.out.xml" freq="60"/>
	<inductionLoop id="1305344344_0_0" lane="1305344344_0" pos="44" file="detectors.out.xml" freq="60"/>
	<inductionLoop id="1305344346_0_0" lane="1305344346_0" pos="200" file="detectors.out.xml" freq="60"/>
	<inductionLoop id="1305344350_0_0" lane="1305344350_0" pos="53" file="detectors.out.xml" freq="60"/>
	<inductionLoop id="1305344352_0_0" lane="1305344352_0" pos="46" file="detectors.out.xml" freq="60"/>
	<inductionLoop id="1305344353_0_0" lane="1305344353_0" pos="59" file="detectors.out.xml" freq="60"/>
	<inductionLoop id="1305344354_0_0" lane="1305344354_0" pos="55" file="detectors.out.xml" freq="60"/>
	<inductionLoop id="1305344355_0_0" lane="1305344355_0" pos="133" file="detectors.out.xml" freq="60"/>
	<inductionLoop id="1305344356_0_0" lane="1305344356_0" pos="42" file="detectors.out.xml" freq="60"/>
	<inductionLoop id="1305344357_0_0" lane="1305344357_0" pos="49" file="detectors.out.xml" freq="60"/>
	<inductionLoop id="1305344359_0_0" lane="1305344359_0" pos="162" file="detectors.out.xml" freq="60"/>
	<inductionLoop id="1305344361_0_0" lane="1305344361_0" pos="193" file="detectors.out.xml" freq="60"/>
	<inductionLoop id="1305344365_0_0" lane="1305344365_0" pos="73" file="detectors.out.xml" freq="60"/>
	<inductionLoop id="1305344366_0_0" lane="1305344366_0" pos="148" file="detectors.out.xml" freq="60"/>
	<inductionLoop id="1305344367_0_0" lane="1305344367_0" pos="40" file="detectors.out.xml" freq="60"/>
	<inductionLoop id="1305344368_0_0" lane="1305344368_0" pos="90" file="detectors.out.xml" freq="60"/>
	<inductionLoop id="1305344369_0_0" lane="1305344369_0" pos="143" file="detectors.out.xml" freq="60"/>
	<inductionLoop id="1305344370_0_0" lane="1305344370_0" pos="103" file="detectors.out.xml" freq="60"/>
	<inductionLoop id="1305344374_0_0" lane="1305344374_0" pos="116" file="detectors.out.xml" freq="60"/>
	<inductionLoop id="1305344382_0_0" lane="1305344382_0" pos="99" file="detectors.out.xml" freq="60"/>
	<inductionLoop id="1305344383_0_0" lane="1305344383_0" pos="92" file="detectors.out.xml" freq="60"/>
	<inductionLoop id="1305344384_0_0" lane="1305344384_0" pos="61" file="detectors.out.xml" freq="60"/>
	<inductionLoop id="1305344386_0_0" lane="1305344386_0" pos="36" file="detectors.out.xml" freq="60"/>
	<inductionLoop id="1305344389_0_0" lane="1305344389_0" pos="62" file="detectors.out.xml" freq="60"/>
	<inductionLoop id="1305344392_0_0" lane="1305344392_0" pos="74" file="detectors.out.xml" freq="60"/>
	<inductionLoop id="1305344393_0_0" lane="1305344393_0" pos="97" file="detectors.out.xml" freq="60"/>
	<inductionLoop id="1305344394_0_0" lane="1305344394_0" pos="84" file="detectors.out.xml" freq="60"/>
	<inductionLoop id="1305344395_0_0" lane="1305344395_0" pos="69" file="detectors.out.xml" freq="60"/>
	<inductionLoop id="1305344396_0_0" lane="1305344396_0" pos="196" file="detectors.out.xml" freq="60"/>
	<inductionLoop id="1305344398_0_0" lane="1305344398_0" pos="48" file="detectors.out.xml" freq="60"/>
	<inductionLoop id="1305344400_0_0" lane="1305344400_0" pos="66" file="detectors.out.xml" freq="60"/>
	<inductionLoop id="1305344401_0_0" lane="1305344401_0" pos="43" file="detectors.out.xml" freq="60"/>
	<inductionLoop id="1305344402_0_0" lane="1305344402_0" pos="60" file="detectors.out.xml" freq="60"/>
	<inductionLoop id="1305344404_0_0" lane="1305344404_0" pos="69" file="detectors.out.xml" freq="60"/>
	<inductionLoop id="1305344405_0_0" lane="1305344405_0" pos="203" file="detectors.out.xml" freq="60"/>
	<inductionLoop id="1305344406_0_0" lane="1305344406_0" pos="201" file="detectors.out.xml" freq="60"/>
	<inductionLoop id="1305344411_0_0" lane="1305344411_0" pos="74" file="detectors.out.xml" freq="60"/>
	<inductionLoop id="1305344413_0_0" lane="1305344413_0" pos="44" file="detectors.out.xml" freq="60"/>
	<inductionLoop id="1305344415_0_0" lane="1305344415_0" pos="200" file="detectors.out.xml" freq="60"/>
	<inductionLoop id="42651275_0_0" lane="42651275_0" pos="218" file="detectors.out.xml" freq="60"/>
	<inductionLoop id="42651277_0_0" lane="42651277_0" pos="218" file="detectors.out.xml" freq="60"/>
</additional>
