<?xml version="1.0" encoding="UTF-8"?>

<!-- generated on 2024-10-16 10:59:58.204190 by randomTrips.py v1_18_0+0000-03ecfdea036
<configuration>
    <net-file value="c:\Users\96551\OneDrive\TRANSIT\bin/../models/realarterials_RSL/roads.net.xml"/>
    <output-trip-file value="c:\Users\96551\OneDrive\TRANSIT\bin/../models/realarterials_RSL//passenger.flow.xml"/>
    <trip-attributes value="departPos='random' departSpeed='max'"/>
    <vehicle-class value="passenger"/>
    <jtrrouter value="True"/>
    <end value="1.0"/>
    <flows value="232"/>
</configuration>
-->

<routes xmlns:xsi="http://www.w3.org/2001/XMLSchema-instance" xsi:noNamespaceSchemaLocation="http://sumo.dlr.de/xsd/routes_file.xsd">
    <vType id="passenger" vClass="passenger"/>
    <flow id="passenger_0" begin="0" end="1" period="232" from="1305344369" departPos='random' departSpeed='max' type="passenger"/>
    <flow id="passenger_1" begin="0" end="1" period="232" from="1305344312" departPos='random' departSpeed='max' type="passenger"/>
    <flow id="passenger_2" begin="0" end="1" period="232" from="1305344384" departPos='random' departSpeed='max' type="passenger"/>
    <flow id="passenger_3" begin="0" end="1" period="232" from="1305344408" departPos='random' departSpeed='max' type="passenger"/>
    <flow id="passenger_4" begin="0" end="1" period="232" from="1305344334" departPos='random' departSpeed='max' type="passenger"/>
    <flow id="passenger_5" begin="0" end="1" period="232" from="1305344303" departPos='random' departSpeed='max' type="passenger"/>
    <flow id="passenger_6" begin="0" end="1" period="232" from="-1305344291" departPos='random' departSpeed='max' type="passenger"/>
    <flow id="passenger_7" begin="0" end="1" period="232" from="1305344371" departPos='random' departSpeed='max' type="passenger"/>
    <flow id="passenger_8" begin="0" end="1" period="232" from="1305344303" departPos='random' departSpeed='max' type="passenger"/>
    <flow id="passenger_9" begin="0" end="1" period="232" from="1305344395" departPos='random' departSpeed='max' type="passenger"/>
    <flow id="passenger_10" begin="0" end="1" period="232" from="1305344395" departPos='random' departSpeed='max' type="passenger"/>
    <flow id="passenger_11" begin="0" end="1" period="232" from="1305344322" departPos='random' departSpeed='max' type="passenger"/>
    <flow id="passenger_12" begin="0" end="1" period="232" from="366076085" departPos='random' departSpeed='max' type="passenger"/>
    <flow id="passenger_13" begin="0" end="1" period="232" from="1266034025" departPos='random' departSpeed='max' type="passenger"/>
    <flow id="passenger_14" begin="0" end="1" period="232" from="1305344401" departPos='random' departSpeed='max' type="passenger"/>
    <flow id="passenger_15" begin="0" end="1" period="232" from="1305344395" departPos='random' departSpeed='max' type="passenger"/>
    <flow id="passenger_16" begin="0" end="1" period="232" from="1305344353" departPos='random' departSpeed='max' type="passenger"/>
    <flow id="passenger_17" begin="0" end="1" period="232" from="1305344327" departPos='random' departSpeed='max' type="passenger"/>
    <flow id="passenger_18" begin="0" end="1" period="232" from="1305344398" departPos='random' departSpeed='max' type="passenger"/>
    <flow id="passenger_19" begin="0" end="1" period="232" from="1305344403" departPos='random' departSpeed='max' type="passenger"/>
    <flow id="passenger_20" begin="0" end="1" period="232" from="1305344379" departPos='random' departSpeed='max' type="passenger"/>
    <flow id="passenger_21" begin="0" end="1" period="232" from="1305344304" departPos='random' departSpeed='max' type="passenger"/>
    <flow id="passenger_22" begin="0" end="1" period="232" from="1151195219" departPos='random' departSpeed='max' type="passenger"/>
    <flow id="passenger_23" begin="0" end="1" period="232" from="1268311823" departPos='random' departSpeed='max' type="passenger"/>
    <flow id="passenger_24" begin="0" end="1" period="232" from="1305344369" departPos='random' departSpeed='max' type="passenger"/>
    <flow id="passenger_25" begin="0" end="1" period="232" from="1305344326" departPos='random' departSpeed='max' type="passenger"/>
    <flow id="passenger_26" begin="0" end="1" period="232" from="1305344310" departPos='random' departSpeed='max' type="passenger"/>
    <flow id="passenger_27" begin="0" end="1" period="232" from="1305344371" departPos='random' departSpeed='max' type="passenger"/>
    <flow id="passenger_28" begin="0" end="1" period="232" from="1305344296" departPos='random' departSpeed='max' type="passenger"/>
    <flow id="passenger_29" begin="0" end="1" period="232" from="1305344295" departPos='random' departSpeed='max' type="passenger"/>
    <flow id="passenger_30" begin="0" end="1" period="232" from="42651277" departPos='random' departSpeed='max' type="passenger"/>
    <flow id="passenger_31" begin="0" end="1" period="232" from="1305344356" departPos='random' departSpeed='max' type="passenger"/>
    <flow id="passenger_32" begin="0" end="1" period="232" from="1305344400" departPos='random' departSpeed='max' type="passenger"/>
    <flow id="passenger_33" begin="0" end="1" period="232" from="1305344305" departPos='random' departSpeed='max' type="passenger"/>
    <flow id="passenger_34" begin="0" end="1" period="232" from="1305344318" departPos='random' departSpeed='max' type="passenger"/>
    <flow id="passenger_35" begin="0" end="1" period="232" from="1305344302" departPos='random' departSpeed='max' type="passenger"/>
    <flow id="passenger_36" begin="0" end="1" period="232" from="1305344406" departPos='random' departSpeed='max' type="passenger"/>
    <flow id="passenger_37" begin="0" end="1" period="232" from="1305344372" departPos='random' departSpeed='max' type="passenger"/>
    <flow id="passenger_38" begin="0" end="1" period="232" from="1305344411" departPos='random' departSpeed='max' type="passenger"/>
    <flow id="passenger_39" begin="0" end="1" period="232" from="1305344310" departPos='random' departSpeed='max' type="passenger"/>
    <flow id="passenger_40" begin="0" end="1" period="232" from="1305344356" departPos='random' departSpeed='max' type="passenger"/>
    <flow id="passenger_41" begin="0" end="1" period="232" from="1305344361" departPos='random' departSpeed='max' type="passenger"/>
    <flow id="passenger_42" begin="0" end="1" period="232" from="1305344331" departPos='random' departSpeed='max' type="passenger"/>
    <flow id="passenger_43" begin="0" end="1" period="232" from="550618646" departPos='random' departSpeed='max' type="passenger"/>
    <flow id="passenger_44" begin="0" end="1" period="232" from="117221839" departPos='random' departSpeed='max' type="passenger"/>
    <flow id="passenger_45" begin="0" end="1" period="232" from="1268311830" departPos='random' departSpeed='max' type="passenger"/>
    <flow id="passenger_46" begin="0" end="1" period="232" from="1305344393" departPos='random' departSpeed='max' type="passenger"/>
    <flow id="passenger_47" begin="0" end="1" period="232" from="-550618646" departPos='random' departSpeed='max' type="passenger"/>
    <flow id="passenger_48" begin="0" end="1" period="232" from="550618646" departPos='random' departSpeed='max' type="passenger"/>
    <flow id="passenger_49" begin="0" end="1" period="232" from="366076088" departPos='random' departSpeed='max' type="passenger"/>
    <flow id="passenger_50" begin="0" end="1" period="232" from="-1266034025" departPos='random' departSpeed='max' type="passenger"/>
    <flow id="passenger_51" begin="0" end="1" period="232" from="1305344376" departPos='random' departSpeed='max' type="passenger"/>
    <flow id="passenger_52" begin="0" end="1" period="232" from="1305344310" departPos='random' departSpeed='max' type="passenger"/>
    <flow id="passenger_53" begin="0" end="1" period="232" from="1268311831" departPos='random' departSpeed='max' type="passenger"/>
    <flow id="passenger_54" begin="0" end="1" period="232" from="1305344339" departPos='random' departSpeed='max' type="passenger"/>
    <flow id="passenger_55" begin="0" end="1" period="232" from="1305344406" departPos='random' departSpeed='max' type="passenger"/>
    <flow id="passenger_56" begin="0" end="1" period="232" from="1305344347" departPos='random' departSpeed='max' type="passenger"/>
    <flow id="passenger_57" begin="0" end="1" period="232" from="1305344411" departPos='random' departSpeed='max' type="passenger"/>
    <flow id="passenger_58" begin="0" end="1" period="232" from="1305344315" departPos='random' departSpeed='max' type="passenger"/>
    <flow id="passenger_59" begin="0" end="1" period="232" from="1305344365" departPos='random' departSpeed='max' type="passenger"/>
    <flow id="passenger_60" begin="0" end="1" period="232" from="1305344388" departPos='random' departSpeed='max' type="passenger"/>
    <flow id="passenger_61" begin="0" end="1" period="232" from="1305344391" departPos='random' departSpeed='max' type="passenger"/>
    <flow id="passenger_62" begin="0" end="1" period="232" from="-117221839" departPos='random' departSpeed='max' type="passenger"/>
    <flow id="passenger_63" begin="0" end="1" period="232" from="-1283813662" departPos='random' departSpeed='max' type="passenger"/>
    <flow id="passenger_64" begin="0" end="1" period="232" from="1305344406" departPos='random' departSpeed='max' type="passenger"/>
    <flow id="passenger_65" begin="0" end="1" period="232" from="1305344317" departPos='random' departSpeed='max' type="passenger"/>
    <flow id="passenger_66" begin="0" end="1" period="232" from="1305344406" departPos='random' departSpeed='max' type="passenger"/>
    <flow id="passenger_67" begin="0" end="1" period="232" from="117221839" departPos='random' departSpeed='max' type="passenger"/>
    <flow id="passenger_68" begin="0" end="1" period="232" from="1147005771" departPos='random' departSpeed='max' type="passenger"/>
    <flow id="passenger_69" begin="0" end="1" period="232" from="1305344389" departPos='random' departSpeed='max' type="passenger"/>
    <flow id="passenger_70" begin="0" end="1" period="232" from="1305344342" departPos='random' departSpeed='max' type="passenger"/>
    <flow id="passenger_71" begin="0" end="1" period="232" from="1305344310" departPos='random' departSpeed='max' type="passenger"/>
    <flow id="passenger_72" begin="0" end="1" period="232" from="1305344334" departPos='random' departSpeed='max' type="passenger"/>
    <flow id="passenger_73" begin="0" end="1" period="232" from="1305344353" departPos='random' departSpeed='max' type="passenger"/>
    <flow id="passenger_74" begin="0" end="1" period="232" from="1305344300" departPos='random' departSpeed='max' type="passenger"/>
    <flow id="passenger_75" begin="0" end="1" period="232" from="550618646" departPos='random' departSpeed='max' type="passenger"/>
    <flow id="passenger_76" begin="0" end="1" period="232" from="1305344337" departPos='random' departSpeed='max' type="passenger"/>
    <flow id="passenger_77" begin="0" end="1" period="232" from="1283813661" departPos='random' departSpeed='max' type="passenger"/>
    <flow id="passenger_78" begin="0" end="1" period="232" from="1305344321" departPos='random' departSpeed='max' type="passenger"/>
    <flow id="passenger_79" begin="0" end="1" period="232" from="1305344305" departPos='random' departSpeed='max' type="passenger"/>
    <flow id="passenger_80" begin="0" end="1" period="232" from="1147005771" departPos='random' departSpeed='max' type="passenger"/>
    <flow id="passenger_81" begin="0" end="1" period="232" from="1305344305" departPos='random' departSpeed='max' type="passenger"/>
    <flow id="passenger_82" begin="0" end="1" period="232" from="1305344403" departPos='random' departSpeed='max' type="passenger"/>
    <flow id="passenger_83" begin="0" end="1" period="232" from="1305344306" departPos='random' departSpeed='max' type="passenger"/>
    <flow id="passenger_84" begin="0" end="1" period="232" from="1305344302" departPos='random' departSpeed='max' type="passenger"/>
    <flow id="passenger_85" begin="0" end="1" period="232" from="1305344416" departPos='random' departSpeed='max' type="passenger"/>
    <flow id="passenger_86" begin="0" end="1" period="232" from="1305344342" departPos='random' departSpeed='max' type="passenger"/>
    <flow id="passenger_87" begin="0" end="1" period="232" from="1305344395" departPos='random' departSpeed='max' type="passenger"/>
    <flow id="passenger_88" begin="0" end="1" period="232" from="1266034025" departPos='random' departSpeed='max' type="passenger"/>
    <flow id="passenger_89" begin="0" end="1" period="232" from="1305344334" departPos='random' departSpeed='max' type="passenger"/>
    <flow id="passenger_90" begin="0" end="1" period="232" from="1305344383" departPos='random' departSpeed='max' type="passenger"/>
    <flow id="passenger_91" begin="0" end="1" period="232" from="42651275" departPos='random' departSpeed='max' type="passenger"/>
    <flow id="passenger_92" begin="0" end="1" period="232" from="1305344331" departPos='random' departSpeed='max' type="passenger"/>
    <flow id="passenger_93" begin="0" end="1" period="232" from="1305344403" departPos='random' departSpeed='max' type="passenger"/>
    <flow id="passenger_94" begin="0" end="1" period="232" from="1305344299" departPos='random' departSpeed='max' type="passenger"/>
    <flow id="passenger_95" begin="0" end="1" period="232" from="1305344334" departPos='random' departSpeed='max' type="passenger"/>
    <flow id="passenger_96" begin="0" end="1" period="232" from="1305344308" departPos='random' departSpeed='max' type="passenger"/>
    <flow id="passenger_97" begin="0" end="1" period="232" from="1305344337" departPos='random' departSpeed='max' type="passenger"/>
    <flow id="passenger_98" begin="0" end="1" period="232" from="1305344355" departPos='random' departSpeed='max' type="passenger"/>
    <flow id="passenger_99" begin="0" end="1" period="232" from="550618646" departPos='random' departSpeed='max' type="passenger"/>
    <flow id="passenger_100" begin="0" end="1" period="232" from="366076088" departPos='random' departSpeed='max' type="passenger"/>
    <flow id="passenger_101" begin="0" end="1" period="232" from="1305344401" departPos='random' departSpeed='max' type="passenger"/>
    <flow id="passenger_102" begin="0" end="1" period="232" from="1305344344" departPos='random' departSpeed='max' type="passenger"/>
    <flow id="passenger_103" begin="0" end="1" period="232" from="1305344331" departPos='random' departSpeed='max' type="passenger"/>
    <flow id="passenger_104" begin="0" end="1" period="232" from="1305344327" departPos='random' departSpeed='max' type="passenger"/>
    <flow id="passenger_105" begin="0" end="1" period="232" from="1305344310" departPos='random' departSpeed='max' type="passenger"/>
    <flow id="passenger_106" begin="0" end="1" period="232" from="1305344339" departPos='random' departSpeed='max' type="passenger"/>
    <flow id="passenger_107" begin="0" end="1" period="232" from="366076085" departPos='random' departSpeed='max' type="passenger"/>
    <flow id="passenger_108" begin="0" end="1" period="232" from="1305344356" departPos='random' departSpeed='max' type="passenger"/>
    <flow id="passenger_109" begin="0" end="1" period="232" from="1305344293" departPos='random' departSpeed='max' type="passenger"/>
    <flow id="passenger_110" begin="0" end="1" period="232" from="366076088" departPos='random' departSpeed='max' type="passenger"/>
    <flow id="passenger_111" begin="0" end="1" period="232" from="1305344353" departPos='random' departSpeed='max' type="passenger"/>
    <flow id="passenger_112" begin="0" end="1" period="232" from="-366076089" departPos='random' departSpeed='max' type="passenger"/>
    <flow id="passenger_113" begin="0" end="1" period="232" from="1305344347" departPos='random' departSpeed='max' type="passenger"/>
    <flow id="passenger_114" begin="0" end="1" period="232" from="1305344294" departPos='random' departSpeed='max' type="passenger"/>
    <flow id="passenger_115" begin="0" end="1" period="232" from="1151195219" departPos='random' departSpeed='max' type="passenger"/>
    <flow id="passenger_116" begin="0" end="1" period="232" from="1305344363" departPos='random' departSpeed='max' type="passenger"/>
    <flow id="passenger_117" begin="0" end="1" period="232" from="1305344305" departPos='random' departSpeed='max' type="passenger"/>
    <flow id="passenger_118" begin="0" end="1" period="232" from="1305344408" departPos='random' departSpeed='max' type="passenger"/>
    <flow id="passenger_119" begin="0" end="1" period="232" from="1305344362" departPos='random' departSpeed='max' type="passenger"/>
    <flow id="passenger_120" begin="0" end="1" period="232" from="1305344334" departPos='random' departSpeed='max' type="passenger"/>
    <flow id="passenger_121" begin="0" end="1" period="232" from="1305344350" departPos='random' departSpeed='max' type="passenger"/>
    <flow id="passenger_122" begin="0" end="1" period="232" from="1305344301" departPos='random' departSpeed='max' type="passenger"/>
    <flow id="passenger_123" begin="0" end="1" period="232" from="1305344306" departPos='random' departSpeed='max' type="passenger"/>
    <flow id="passenger_124" begin="0" end="1" period="232" from="1305344374" departPos='random' departSpeed='max' type="passenger"/>
    <flow id="passenger_125" begin="0" end="1" period="232" from="1305344318" departPos='random' departSpeed='max' type="passenger"/>
    <flow id="passenger_126" begin="0" end="1" period="232" from="1151195218" departPos='random' departSpeed='max' type="passenger"/>
    <flow id="passenger_127" begin="0" end="1" period="232" from="550618646" departPos='random' departSpeed='max' type="passenger"/>
    <flow id="passenger_128" begin="0" end="1" period="232" from="1151195218" departPos='random' departSpeed='max' type="passenger"/>
    <flow id="passenger_129" begin="0" end="1" period="232" from="1305344310" departPos='random' departSpeed='max' type="passenger"/>
    <flow id="passenger_130" begin="0" end="1" period="232" from="1305344406" departPos='random' departSpeed='max' type="passenger"/>
    <flow id="passenger_131" begin="0" end="1" period="232" from="1305344326" departPos='random' departSpeed='max' type="passenger"/>
    <flow id="passenger_132" begin="0" end="1" period="232" from="1305344399" departPos='random' departSpeed='max' type="passenger"/>
    <flow id="passenger_133" begin="0" end="1" period="232" from="1305344365" departPos='random' departSpeed='max' type="passenger"/>
    <flow id="passenger_134" begin="0" end="1" period="232" from="1305344372" departPos='random' departSpeed='max' type="passenger"/>
    <flow id="passenger_135" begin="0" end="1" period="232" from="1305344397" departPos='random' departSpeed='max' type="passenger"/>
    <flow id="passenger_136" begin="0" end="1" period="232" from="1305344373" departPos='random' departSpeed='max' type="passenger"/>
    <flow id="passenger_137" begin="0" end="1" period="232" from="1305344289" departPos='random' departSpeed='max' type="passenger"/>
    <flow id="passenger_138" begin="0" end="1" period="232" from="1268311830" departPos='random' departSpeed='max' type="passenger"/>
    <flow id="passenger_139" begin="0" end="1" period="232" from="1305344311" departPos='random' departSpeed='max' type="passenger"/>
    <flow id="passenger_140" begin="0" end="1" period="232" from="1305344381" departPos='random' departSpeed='max' type="passenger"/>
    <flow id="passenger_141" begin="0" end="1" period="232" from="1305344369" departPos='random' departSpeed='max' type="passenger"/>
    <flow id="passenger_142" begin="0" end="1" period="232" from="1305344344" departPos='random' departSpeed='max' type="passenger"/>
    <flow id="passenger_143" begin="0" end="1" period="232" from="1305344401" departPos='random' departSpeed='max' type="passenger"/>
    <flow id="passenger_144" begin="0" end="1" period="232" from="1305344334" departPos='random' departSpeed='max' type="passenger"/>
    <flow id="passenger_145" begin="0" end="1" period="232" from="-117221839" departPos='random' departSpeed='max' type="passenger"/>
    <flow id="passenger_146" begin="0" end="1" period="232" from="1305344369" departPos='random' departSpeed='max' type="passenger"/>
    <flow id="passenger_147" begin="0" end="1" period="232" from="1305344385" departPos='random' departSpeed='max' type="passenger"/>
    <flow id="passenger_148" begin="0" end="1" period="232" from="1305344335" departPos='random' departSpeed='max' type="passenger"/>
    <flow id="passenger_149" begin="0" end="1" period="232" from="1151195218" departPos='random' departSpeed='max' type="passenger"/>
    <flow id="passenger_150" begin="0" end="1" period="232" from="1305344410" departPos='random' departSpeed='max' type="passenger"/>
    <flow id="passenger_151" begin="0" end="1" period="232" from="1305344399" departPos='random' departSpeed='max' type="passenger"/>
    <flow id="passenger_152" begin="0" end="1" period="232" from="1305344292" departPos='random' departSpeed='max' type="passenger"/>
    <flow id="passenger_153" begin="0" end="1" period="232" from="1305344317" departPos='random' departSpeed='max' type="passenger"/>
    <flow id="passenger_154" begin="0" end="1" period="232" from="1305344393" departPos='random' departSpeed='max' type="passenger"/>
    <flow id="passenger_155" begin="0" end="1" period="232" from="1305344409" departPos='random' departSpeed='max' type="passenger"/>
    <flow id="passenger_156" begin="0" end="1" period="232" from="1305344308" departPos='random' departSpeed='max' type="passenger"/>
    <flow id="passenger_157" begin="0" end="1" period="232" from="1305344391" departPos='random' departSpeed='max' type="passenger"/>
    <flow id="passenger_158" begin="0" end="1" period="232" from="1305344332" departPos='random' departSpeed='max' type="passenger"/>
    <flow id="passenger_159" begin="0" end="1" period="232" from="1305344293" departPos='random' departSpeed='max' type="passenger"/>
    <flow id="passenger_160" begin="0" end="1" period="232" from="1305344404" departPos='random' departSpeed='max' type="passenger"/>
    <flow id="passenger_161" begin="0" end="1" period="232" from="1305344396" departPos='random' departSpeed='max' type="passenger"/>
    <flow id="passenger_162" begin="0" end="1" period="232" from="-1305344289" departPos='random' departSpeed='max' type="passenger"/>
    <flow id="passenger_163" begin="0" end="1" period="232" from="1305344320" departPos='random' departSpeed='max' type="passenger"/>
    <flow id="passenger_164" begin="0" end="1" period="232" from="1305344394" departPos='random' departSpeed='max' type="passenger"/>
    <flow id="passenger_165" begin="0" end="1" period="232" from="1305344396" departPos='random' departSpeed='max' type="passenger"/>
    <flow id="passenger_166" begin="0" end="1" period="232" from="1305344392" departPos='random' departSpeed='max' type="passenger"/>
    <flow id="passenger_167" begin="0" end="1" period="232" from="1305344405" departPos='random' departSpeed='max' type="passenger"/>
    <flow id="passenger_168" begin="0" end="1" period="232" from="1305344304" departPos='random' departSpeed='max' type="passenger"/>
    <flow id="passenger_169" begin="0" end="1" period="232" from="1305344340" departPos='random' departSpeed='max' type="passenger"/>
    <flow id="passenger_170" begin="0" end="1" period="232" from="1305344393" departPos='random' departSpeed='max' type="passenger"/>
    <flow id="passenger_171" begin="0" end="1" period="232" from="-1305344289" departPos='random' departSpeed='max' type="passenger"/>
    <flow id="passenger_172" begin="0" end="1" period="232" from="1305344320" departPos='random' departSpeed='max' type="passenger"/>
    <flow id="passenger_173" begin="0" end="1" period="232" from="366076087" departPos='random' departSpeed='max' type="passenger"/>
    <flow id="passenger_174" begin="0" end="1" period="232" from="1305344370" departPos='random' departSpeed='max' type="passenger"/>
    <flow id="passenger_175" begin="0" end="1" period="232" from="42651275" departPos='random' departSpeed='max' type="passenger"/>
    <flow id="passenger_176" begin="0" end="1" period="232" from="1305344416" departPos='random' departSpeed='max' type="passenger"/>
    <flow id="passenger_177" begin="0" end="1" period="232" from="366076088" departPos='random' departSpeed='max' type="passenger"/>
    <flow id="passenger_178" begin="0" end="1" period="232" from="366076087" departPos='random' departSpeed='max' type="passenger"/>
    <flow id="passenger_179" begin="0" end="1" period="232" from="1268311830" departPos='random' departSpeed='max' type="passenger"/>
    <flow id="passenger_180" begin="0" end="1" period="232" from="1305344383" departPos='random' departSpeed='max' type="passenger"/>
    <flow id="passenger_181" begin="0" end="1" period="232" from="1305344364" departPos='random' departSpeed='max' type="passenger"/>
    <flow id="passenger_182" begin="0" end="1" period="232" from="1305344328" departPos='random' departSpeed='max' type="passenger"/>
    <flow id="passenger_183" begin="0" end="1" period="232" from="1305344308" departPos='random' departSpeed='max' type="passenger"/>
    <flow id="passenger_184" begin="0" end="1" period="232" from="-117221839" departPos='random' departSpeed='max' type="passenger"/>
    <flow id="passenger_185" begin="0" end="1" period="232" from="1305344353" departPos='random' departSpeed='max' type="passenger"/>
    <flow id="passenger_186" begin="0" end="1" period="232" from="1305344385" departPos='random' departSpeed='max' type="passenger"/>
    <flow id="passenger_187" begin="0" end="1" period="232" from="1305344325" departPos='random' departSpeed='max' type="passenger"/>
    <flow id="passenger_188" begin="0" end="1" period="232" from="1305344373" departPos='random' departSpeed='max' type="passenger"/>
    <flow id="passenger_189" begin="0" end="1" period="232" from="1305344318" departPos='random' departSpeed='max' type="passenger"/>
    <flow id="passenger_190" begin="0" end="1" period="232" from="1305344382" departPos='random' departSpeed='max' type="passenger"/>
    <flow id="passenger_191" begin="0" end="1" period="232" from="1305344317" departPos='random' departSpeed='max' type="passenger"/>
    <flow id="passenger_192" begin="0" end="1" period="232" from="1305344331" departPos='random' departSpeed='max' type="passenger"/>
    <flow id="passenger_193" begin="0" end="1" period="232" from="1283813662" departPos='random' departSpeed='max' type="passenger"/>
    <flow id="passenger_194" begin="0" end="1" period="232" from="1305344416" departPos='random' departSpeed='max' type="passenger"/>
    <flow id="passenger_195" begin="0" end="1" period="232" from="1305344410" departPos='random' departSpeed='max' type="passenger"/>
    <flow id="passenger_196" begin="0" end="1" period="232" from="1305344316" departPos='random' departSpeed='max' type="passenger"/>
    <flow id="passenger_197" begin="0" end="1" period="232" from="-117221839" departPos='random' departSpeed='max' type="passenger"/>
    <flow id="passenger_198" begin="0" end="1" period="232" from="1305344335" departPos='random' departSpeed='max' type="passenger"/>
    <flow id="passenger_199" begin="0" end="1" period="232" from="1305344372" departPos='random' departSpeed='max' type="passenger"/>
    <flow id="passenger_200" begin="0" end="1" period="232" from="1305344337" departPos='random' departSpeed='max' type="passenger"/>
    <flow id="passenger_201" begin="0" end="1" period="232" from="1305344342" departPos='random' departSpeed='max' type="passenger"/>
    <flow id="passenger_202" begin="0" end="1" period="232" from="1305344393" departPos='random' departSpeed='max' type="passenger"/>
    <flow id="passenger_203" begin="0" end="1" period="232" from="1151195219" departPos='random' departSpeed='max' type="passenger"/>
    <flow id="passenger_204" begin="0" end="1" period="232" from="1305344368" departPos='random' departSpeed='max' type="passenger"/>
    <flow id="passenger_205" begin="0" end="1" period="232" from="1305344397" departPos='random' departSpeed='max' type="passenger"/>
    <flow id="passenger_206" begin="0" end="1" period="232" from="1305344374" departPos='random' departSpeed='max' type="passenger"/>
    <flow id="passenger_207" begin="0" end="1" period="232" from="1305344300" departPos='random' departSpeed='max' type="passenger"/>
    <flow id="passenger_208" begin="0" end="1" period="232" from="1305344307" departPos='random' departSpeed='max' type="passenger"/>
    <flow id="passenger_209" begin="0" end="1" period="232" from="1305344402" departPos='random' departSpeed='max' type="passenger"/>
    <flow id="passenger_210" begin="0" end="1" period="232" from="1305344333" departPos='random' departSpeed='max' type="passenger"/>
    <flow id="passenger_211" begin="0" end="1" period="232" from="1305344299" departPos='random' departSpeed='max' type="passenger"/>
    <flow id="passenger_212" begin="0" end="1" period="232" from="1305344346" departPos='random' departSpeed='max' type="passenger"/>
    <flow id="passenger_213" begin="0" end="1" period="232" from="1305344372" departPos='random' departSpeed='max' type="passenger"/>
    <flow id="passenger_214" begin="0" end="1" period="232" from="1305344386" departPos='random' departSpeed='max' type="passenger"/>
    <flow id="passenger_215" begin="0" end="1" period="232" from="1268311830" departPos='random' departSpeed='max' type="passenger"/>
    <flow id="passenger_216" begin="0" end="1" period="232" from="1305344296" departPos='random' departSpeed='max' type="passenger"/>