<?xml version="1.0" encoding="UTF-8"?>

<!-- generated on 2024-09-11 12:12:38 by Eclipse SUMO netedit Version 1.18.0
<configuration xmlns:xsi="http://www.w3.org/2001/XMLSchema-instance" xsi:noNamespaceSchemaLocation="http://sumo.dlr.de/xsd/neteditConfiguration.xsd">

    <input>
        <sumo-net-file value="C:\Users\96551\OneDrive\TRANSIT\models\realarterials_RSL\roads.net.xml"/>
    </input>

    <output>
        <output-file value="C:\Users\96551\OneDrive\TRANSIT\models\realarterials_RSL\roads.net.xml"/>
    </output>

    <processing>
        <geometry.min-radius.fix.railways value="false"/>
        <geometry.max-grade.fix value="false"/>
        <offset.disable-normalization value="true"/>
        <lefthand value="0"/>
    </processing>

    <junctions>
        <no-turnarounds value="true"/>
        <junctions.corner-detail value="5"/>
        <junctions.limit-turn-speed value="5.50"/>
        <rectangular-lane-cut value="0"/>
    </junctions>

    <pedestrian>
        <walkingareas value="0"/>
    </pedestrian>

</configuration>
-->

<net version="1.16" junctionCornerDetail="5" limitTurnSpeed="5.50" xmlns:xsi="http://www.w3.org/2001/XMLSchema-instance" xsi:noNamespaceSchemaLocation="http://sumo.dlr.de/xsd/net_file.xsd">

    <location netOffset="-440167.01,-4399374.32" convBoundary="0.00,0.00,1290.66,1495.56" origBoundary="116.284833,39.668990,116.317334,39.756888" projParameter="+proj=utm +zone=50 +ellps=WGS84 +datum=WGS84 +units=m +no_defs"/>

    <type id="highway.residential" priority="3" numLanes="1" speed="13.89" disallow="tram rail_urban rail rail_electric rail_fast ship" oneway="0"/>
    <type id="highway.secondary" priority="11" numLanes="1" speed="27.78" disallow="tram rail_urban rail rail_electric rail_fast ship" oneway="0"/>
    <type id="highway.tertiary" priority="10" numLanes="1" speed="22.22" disallow="tram rail_urban rail rail_electric rail_fast ship" oneway="0"/>

    <edge id=":10709139613_0" function="internal">
        <lane id=":10709139613_0_0" index="0" speed="22.22" length="0.31" shape="282.89,737.25 282.58,737.25"/>
    </edge>
    <edge id=":10709139613_1" function="internal">
        <lane id=":10709139613_1_0" index="0" speed="22.22" length="0.29" shape="282.56,734.05 282.85,734.05"/>
    </edge>
    <edge id=":10718888372_0" function="internal">
        <lane id=":10718888372_0_0" index="0" speed="27.78" length="0.27" shape="1137.85,11.11 1137.57,11.11"/>
    </edge>
    <edge id=":10842743226_0" function="internal">
        <lane id=":10842743226_0_0" index="0" speed="22.22" length="0.31" shape="178.28,1467.19 177.96,1467.19"/>
    </edge>
    <edge id=":10842743226_1" function="internal">
        <lane id=":10842743226_1_0" index="0" speed="22.22" length="0.27" shape="177.96,1463.99 178.23,1463.99"/>
    </edge>
    <edge id=":10842743230_0" function="internal">
        <lane id=":10842743230_0_0" index="0" speed="22.22" length="0.31" shape="70.35,1467.20 70.03,1467.20"/>
    </edge>
    <edge id=":10842743230_1" function="internal">
        <lane id=":10842743230_1_0" index="0" speed="22.22" length="0.27" shape="70.07,1464.00 70.35,1464.00"/>
    </edge>
    <edge id=":10842743238_0" function="internal">
        <lane id=":10842743238_0_0" index="0" speed="22.22" length="0.30" shape="45.34,1466.91 45.04,1466.91"/>
    </edge>
    <edge id=":10842743238_1" function="internal">
        <lane id=":10842743238_1_0" index="0" speed="22.22" length="0.30" shape="45.08,1463.71 45.38,1463.71"/>
    </edge>
    <edge id=":11047128595_0" function="internal">
        <lane id=":11047128595_0_0" index="0" speed="22.22" length="0.30" shape="42.43,1466.88 42.13,1466.88"/>
    </edge>
    <edge id=":11047128595_1" function="internal">
        <lane id=":11047128595_1_0" index="0" speed="22.22" length="0.30" shape="42.17,1463.68 42.47,1463.68"/>
    </edge>
    <edge id=":11366018192_0" function="internal">
        <lane id=":11366018192_0_0" index="0" speed="22.22" length="0.10" shape="157.06,1064.83 157.06,1064.83"/>
    </edge>
    <edge id=":11366018192_1" function="internal">
        <lane id=":11366018192_1_0" index="0" speed="22.22" length="0.10" shape="157.02,1061.63 157.02,1061.63"/>
    </edge>
    <edge id=":11366018193_0" function="internal">
        <lane id=":11366018193_0_0" index="0" speed="22.22" length="0.30" shape="182.72,738.07 182.42,738.07"/>
    </edge>
    <edge id=":11366018193_1" function="internal">
        <lane id=":11366018193_1_0" index="0" speed="22.22" length="0.30" shape="182.40,734.87 182.70,734.87"/>
    </edge>
    <edge id=":11383231724_0" function="internal">
        <lane id=":11383231724_0_0" index="0" speed="22.22" length="0.10" shape="246.18,1466.63 246.18,1466.63"/>
    </edge>
    <edge id=":11383231724_1" function="internal">
        <lane id=":11383231724_1_0" index="0" speed="22.22" length="0.10" shape="246.18,1463.43 246.18,1463.43"/>
    </edge>
    <edge id=":11383325494_0" function="internal">
        <lane id=":11383325494_0_0" index="0" speed="13.89" length="0.31" shape="402.88,360.45 402.57,360.45"/>
    </edge>
    <edge id=":11383325494_1" function="internal">
        <lane id=":11383325494_1_0" index="0" speed="13.89" length="0.29" shape="402.57,357.25 402.86,357.25"/>
    </edge>
    <edge id=":11760415650_0" function="internal">
        <lane id=":11760415650_0_0" index="0" speed="22.22" length="0.10" shape="306.54,736.97 306.54,736.97"/>
    </edge>
    <edge id=":11760415650_1" function="internal">
        <lane id=":11760415650_1_0" index="0" speed="22.22" length="0.10" shape="306.50,733.77 306.50,733.77"/>
    </edge>
    <edge id=":11760415658_0" function="internal">
        <lane id=":11760415658_0_0" index="0" speed="22.22" length="0.10" shape="405.08,735.97 405.08,735.97"/>
    </edge>
    <edge id=":11760415658_1" function="internal">
        <lane id=":11760415658_1_0" index="0" speed="22.22" length="0.10" shape="405.06,732.77 405.06,732.77"/>
    </edge>
    <edge id=":11911136167_0" function="internal">
        <lane id=":11911136167_0_0" index="0" speed="27.78" length="0.10" shape="24.92,1015.61 24.92,1015.61"/>
    </edge>
    <edge id=":11911271172_0" function="internal">
        <lane id=":11911271172_0_0" index="0" speed="22.22" length="0.30" shape="75.60,1065.77 75.30,1065.77"/>
    </edge>
    <edge id=":11911271172_1" function="internal">
        <lane id=":11911271172_1_0" index="0" speed="22.22" length="0.30" shape="75.26,1062.57 75.56,1062.57"/>
    </edge>
    <edge id=":11911271178_0" function="internal">
        <lane id=":11911271178_0_0" index="0" speed="27.78" length="0.10" shape="18.56,1095.94 18.56,1095.94"/>
    </edge>
    <edge id=":11911271179_0" function="internal">
        <lane id=":11911271179_0_0" index="0" speed="8.41" length="12.70" shape="32.38,1466.77 31.41,1465.01 30.23,1461.08 29.20,1456.98 28.65,1454.68"/>
    </edge>
    <edge id=":11911271179_1" function="internal">
        <lane id=":11911271179_1_0" index="0" speed="6.97" length="9.75" shape="30.20,1454.30 30.62,1458.35 31.13,1461.24 31.73,1462.98 32.42,1463.57"/>
    </edge>
    <edge id=":11911271180_0" function="internal">
        <lane id=":11911271180_0_0" index="0" speed="6.22" length="5.26" shape="453.41,15.25 452.25,15.27 450.66,15.38 449.16,15.65 448.33,16.18"/>
    </edge>
    <edge id=":11911271180_1" function="internal">
        <lane id=":11911271180_1_0" index="0" speed="11.69" length="19.85" shape="434.17,9.26 435.99,7.83 439.80,6.80 445.58,6.16 453.35,5.91"/>
    </edge>
    <edge id=":11911271181_0" function="internal">
        <lane id=":11911271181_0_0" index="0" speed="9.01" length="11.89" shape="280.65,360.05 276.93,360.29 273.95,361.11 271.72,362.49 270.22,364.44"/>
    </edge>
    <edge id=":11911271181_1" function="internal">
        <lane id=":11911271181_1_0" index="0" speed="10.60" length="34.99" shape="280.65,360.05 269.92,359.06 261.82,356.00 257.94,350.42 259.85,341.86"/>
    </edge>
    <edge id=":11911271181_2" function="internal">
        <lane id=":11911271181_2_0" index="0" speed="5.74" length="9.19" shape="277.10,350.91 276.19,353.48 276.49,355.33 277.98,356.46 280.68,356.85"/>
    </edge>
    <edge id=":11911271181_3" function="internal">
        <lane id=":11911271181_3_0" index="0" speed="27.78" length="15.17" shape="277.10,350.91 270.22,364.44"/>
    </edge>
    <edge id=":11911271181_4" function="internal">
        <lane id=":11911271181_4_0" index="0" speed="27.78" length="15.51" shape="252.80,355.67 259.85,341.86"/>
    </edge>
    <edge id=":11911271181_5" function="internal">
        <lane id=":11911271181_5_0" index="0" speed="13.55" length="19.39" shape="252.80,355.67 254.37,356.09 259.54,356.42 268.31,356.68 272.12,356.73"/>
    </edge>
    <edge id=":11911271181_6" function="internal">
        <lane id=":11911271181_6_0" index="0" speed="13.55" length="8.55" shape="272.12,356.73 280.68,356.85"/>
    </edge>
    <edge id=":11911271182_0" function="internal">
        <lane id=":11911271182_0_0" index="0" speed="7.89" length="10.89" shape="96.42,737.16 93.12,737.44 90.55,738.35 88.72,739.89 87.62,742.08"/>
    </edge>
    <edge id=":11911271182_1" function="internal">
        <lane id=":11911271182_1_0" index="0" speed="10.72" length="33.23" shape="96.42,737.16 85.94,736.43 77.94,734.02 73.66,729.22 74.37,721.31"/>
    </edge>
    <edge id=":11911271182_2" function="internal">
        <lane id=":11911271182_2_0" index="0" speed="5.87" length="9.10" shape="92.42,728.03 91.83,730.60 92.30,732.44 93.85,733.56 96.46,733.97"/>
    </edge>
    <edge id=":11911271182_3" function="internal">
        <lane id=":11911271182_3_0" index="0" speed="27.78" length="14.85" shape="92.42,728.03 87.62,742.08"/>
    </edge>
    <edge id=":11911271182_4" function="internal">
        <lane id=":11911271182_4_0" index="0" speed="27.78" length="16.22" shape="69.06,736.64 74.37,721.31"/>
    </edge>
    <edge id=":11911271182_5" function="internal">
        <lane id=":11911271182_5_0" index="0" speed="12.46" length="19.27" shape="69.06,736.64 71.13,735.35 76.38,734.47 84.83,734.01 87.87,734.00"/>
    </edge>
    <edge id=":11911271182_6" function="internal">
        <lane id=":11911271182_6_0" index="0" speed="12.46" length="8.59" shape="87.87,734.00 96.46,733.97"/>
    </edge>
    <edge id=":11911271183_0" function="internal">
        <lane id=":11911271183_0_0" index="0" speed="6.74" length="9.46" shape="25.46,1066.34 22.80,1066.72 20.87,1067.78 19.69,1069.52 19.24,1071.95"/>
    </edge>
    <edge id=":11911271183_1" function="internal">
        <lane id=":11911271183_1_0" index="0" speed="10.44" length="26.99" shape="25.46,1066.34 16.45,1066.02 9.55,1064.51 5.28,1061.28 4.19,1055.84"/>
    </edge>
    <edge id=":11911271183_2" function="internal">
        <lane id=":11911271183_2_0" index="0" speed="6.25" length="9.03" shape="20.26,1057.45 20.34,1059.97 21.23,1061.75 22.93,1062.81 25.43,1063.14"/>
    </edge>
    <edge id=":11911271183_3" function="internal">
        <lane id=":11911271183_3_0" index="0" speed="27.78" length="14.53" shape="20.26,1057.45 19.24,1071.95"/>
    </edge>
    <edge id=":11911271183_4" function="internal">
        <lane id=":11911271183_4_0" index="0" speed="27.78" length="15.69" shape="3.04,1071.49 4.19,1055.84"/>
    </edge>
    <edge id=":11911271183_5" function="internal">
        <lane id=":11911271183_5_0" index="0" speed="10.78" length="17.31" shape="3.04,1071.49 4.55,1067.93 8.78,1065.35 15.74,1063.76 17.09,1063.67"/>
    </edge>
    <edge id=":11911271183_6" function="internal">
        <lane id=":11911271183_6_0" index="0" speed="10.78" length="8.36" shape="17.09,1063.67 25.43,1063.14"/>
    </edge>
    <edge id=":11911271184_0" function="internal">
        <lane id=":11911271184_0_0" index="0" speed="9.33" length="20.61" shape="1277.50,0.05 1283.40,0.73 1287.53,2.99 1289.89,6.83 1290.48,12.26"/>
    </edge>
    <edge id=":11911271184_1" function="internal">
        <lane id=":11911271184_1_0" index="0" speed="3.90" length="2.71" shape="1279.36,11.73 1279.28,10.99 1278.98,10.46 1278.47,10.15 1277.72,10.06"/>
    </edge>
    <edge id=":11911271185_0" function="internal">
        <lane id=":11911271185_0_0" index="0" speed="27.78" length="14.74" shape="1290.33,1040.01 1290.38,1054.75"/>
    </edge>
    <edge id=":11911271185_1" function="internal">
        <lane id=":11911271185_1_0" index="0" speed="9.09" length="10.41" shape="1290.33,1040.01 1289.51,1043.95 1286.88,1046.76 1284.51,1047.65"/>
    </edge>
    <edge id=":11911271185_6" function="internal">
        <lane id=":11911271185_6_0" index="0" speed="9.09" length="8.51" shape="1284.51,1047.65 1282.43,1048.44 1276.16,1048.99"/>
    </edge>
    <edge id=":11911271185_2" function="internal">
        <lane id=":11911271185_2_0" index="0" speed="6.46" length="9.03" shape="1276.17,1045.79 1278.63,1045.44 1280.37,1044.39 1281.39,1042.63 1281.70,1040.17"/>
    </edge>
    <edge id=":11911271185_3" function="internal">
        <lane id=":11911271185_3_0" index="0" speed="9.11" length="18.90" shape="1276.17,1045.79 1282.43,1046.36 1286.89,1048.04 1289.54,1050.84 1290.38,1054.75"/>
    </edge>
    <edge id=":11911271185_4" function="internal">
        <lane id=":11911271185_4_0" index="0" speed="6.50" length="9.07" shape="1281.76,1054.62 1281.43,1052.16 1280.39,1050.40 1278.63,1049.35 1276.16,1048.99"/>
    </edge>
    <edge id=":11911271185_5" function="internal">
        <lane id=":11911271185_5_0" index="0" speed="27.78" length="14.45" shape="1281.76,1054.62 1281.70,1040.17"/>
    </edge>
    <edge id=":11911271186_0" function="internal">
        <lane id=":11911271186_0_0" index="0" speed="6.69" length="9.27" shape="1275.99,736.15 1275.56,733.67 1274.44,731.89 1272.63,730.80 1270.12,730.40"/>
    </edge>
    <edge id=":11911271186_1" function="internal">
        <lane id=":11911271186_1_0" index="0" speed="27.78" length="14.46" shape="1275.99,736.15 1275.83,721.69"/>
    </edge>
    <edge id=":11911271186_2" function="internal">
        <lane id=":11911271186_2_0" index="0" speed="27.78" length="14.79" shape="1285.59,721.74 1285.28,736.53"/>
    </edge>
    <edge id=":11911271186_3" function="internal">
        <lane id=":11911271186_3_0" index="0" speed="9.31" length="11.22" shape="1285.59,721.74 1284.62,725.64 1281.72,728.38 1278.67,729.39"/>
    </edge>
    <edge id=":11911271186_6" function="internal">
        <lane id=":11911271186_6_0" index="0" speed="9.31" length="8.66" shape="1278.67,729.39 1276.89,729.97 1270.12,730.40"/>
    </edge>
    <edge id=":11911271186_4" function="internal">
        <lane id=":11911271186_4_0" index="0" speed="6.48" length="9.03" shape="1270.18,727.20 1272.64,726.90 1274.40,725.88 1275.46,724.14 1275.83,721.69"/>
    </edge>
    <edge id=":11911271186_5" function="internal">
        <lane id=":11911271186_5_0" index="0" speed="9.32" length="19.93" shape="1270.18,727.20 1276.92,727.90 1281.69,729.68 1284.47,732.56 1285.28,736.53"/>
    </edge>
    <edge id=":11911271187_0" function="internal">
        <lane id=":11911271187_0_0" index="0" speed="5.81" length="9.16" shape="1274.17,322.87 1273.76,320.21 1272.63,318.68 1270.78,318.30 1268.21,319.06"/>
    </edge>
    <edge id=":11911271187_1" function="internal">
        <lane id=":11911271187_1_0" index="0" speed="27.78" length="14.99" shape="1274.17,322.87 1274.08,307.87"/>
    </edge>
    <edge id=":11911271187_2" function="internal">
        <lane id=":11911271187_2_0" index="0" speed="27.78" length="14.95" shape="1285.55,307.92 1285.55,322.87"/>
    </edge>
    <edge id=":11911271187_3" function="internal">
        <lane id=":11911271187_3_0" index="0" speed="11.66" length="11.64" shape="1285.55,307.92 1284.46,309.85 1281.21,312.36 1276.59,314.97"/>
    </edge>
    <edge id=":11911271187_6" function="internal">
        <lane id=":11911271187_6_0" index="0" speed="11.66" length="9.33" shape="1276.59,314.97 1275.79,315.42 1268.21,319.06"/>
    </edge>
    <edge id=":11911271187_4" function="internal">
        <lane id=":11911271187_4_0" index="0" speed="8.76" length="11.57" shape="1266.89,316.14 1270.03,314.41 1272.27,312.45 1273.62,310.28 1274.08,307.87"/>
    </edge>
    <edge id=":11911271187_5" function="internal">
        <lane id=":11911271187_5_0" index="0" speed="9.15" length="24.98" shape="1266.89,316.14 1274.04,313.73 1279.99,313.67 1284.05,316.53 1285.55,322.87"/>
    </edge>
    <edge id=":11911271188_0" function="internal">
        <lane id=":11911271188_0_0" index="0" speed="6.59" length="9.11" shape="865.59,17.70 865.19,15.22 864.11,13.45 862.35,12.38 859.91,12.02"/>
    </edge>
    <edge id=":11911271188_1" function="internal">
        <lane id=":11911271188_1_0" index="0" speed="9.10" length="18.94" shape="865.59,17.70 866.02,11.42 867.61,6.93 870.37,4.23 874.29,3.33"/>
    </edge>
    <edge id=":11911271188_2" function="internal">
        <lane id=":11911271188_2_0" index="0" speed="6.49" length="9.05" shape="874.30,11.96 871.85,12.33 870.11,13.41 869.09,15.17 868.79,17.64"/>
    </edge>
    <edge id=":11911271188_3" function="internal">
        <lane id=":11911271188_3_0" index="0" speed="27.78" length="14.39" shape="874.30,11.96 859.91,12.02"/>
    </edge>
    <edge id=":11911271188_4" function="internal">
        <lane id=":11911271188_4_0" index="0" speed="27.78" length="14.36" shape="859.93,3.38 874.29,3.33"/>
    </edge>
    <edge id=":11911271188_5" function="internal">
        <lane id=":11911271188_5_0" index="0" speed="9.17" length="10.15" shape="859.93,3.38 863.69,4.25 866.42,6.92 867.30,9.23"/>
    </edge>
    <edge id=":11911271188_6" function="internal">
        <lane id=":11911271188_6_0" index="0" speed="9.17" length="8.59" shape="867.30,9.23 868.12,11.38 868.79,17.64"/>
    </edge>
    <edge id=":1226822701_0" function="internal">
        <lane id=":1226822701_0_0" index="0" speed="27.78" length="0.27" shape="27.38,1420.10 27.40,1420.36"/>
    </edge>
    <edge id=":1226822708_0" function="internal">
        <lane id=":1226822708_0_0" index="0" speed="22.22" length="14.26" shape="353.53,1466.38 339.28,1466.38"/>
    </edge>
    <edge id=":1226822708_1" function="internal">
        <lane id=":1226822708_1_0" index="0" speed="8.02" length="3.97" shape="353.53,1466.38 349.72,1465.80 349.63,1465.74"/>
    </edge>
    <edge id=":1226822708_6" function="internal">
        <lane id=":1226822708_6_0" index="0" speed="8.02" length="10.15" shape="349.63,1465.74 346.99,1464.13 345.35,1461.39 344.79,1457.56"/>
    </edge>
    <edge id=":1226822708_2" function="internal">
        <lane id=":1226822708_2_0" index="0" speed="6.53" length="9.01" shape="347.99,1457.55 348.35,1459.99 349.40,1461.75 351.14,1462.81 353.57,1463.18"/>
    </edge>
    <edge id=":1226822708_3" function="internal">
        <lane id=":1226822708_3_0" index="0" speed="8.00" length="14.13" shape="347.99,1457.55 347.46,1461.38 345.83,1464.13 343.10,1465.80 339.28,1466.38"/>
    </edge>
    <edge id=":1226822708_4" function="internal">
        <lane id=":1226822708_4_0" index="0" speed="6.51" length="8.99" shape="339.25,1463.18 341.68,1462.81 343.42,1461.75 344.45,1460.00 344.79,1457.56"/>
    </edge>
    <edge id=":1226822708_5" function="internal">
        <lane id=":1226822708_5_0" index="0" speed="22.22" length="14.32" shape="339.25,1463.18 353.57,1463.18"/>
    </edge>
    <edge id=":1226822716_0" function="internal">
        <lane id=":1226822716_0_0" index="0" speed="6.49" length="9.03" shape="343.41,1068.42 343.05,1065.97 341.99,1064.23 340.23,1063.20 337.78,1062.87"/>
    </edge>
    <edge id=":1226822716_1" function="internal">
        <lane id=":1226822716_1_0" index="0" speed="13.89" length="14.42" shape="343.41,1068.42 343.28,1054.01"/>
    </edge>
    <edge id=":1226822716_2" function="internal">
        <lane id=":1226822716_2_0" index="0" speed="8.03" length="4.04" shape="343.41,1068.42 343.94,1064.57 344.01,1064.44"/>
    </edge>
    <edge id=":1226822716_12" function="internal">
        <lane id=":1226822716_12_0" index="0" speed="8.03" length="10.17" shape="344.01,1064.44 345.58,1061.79 348.31,1060.11 352.15,1059.51"/>
    </edge>
    <edge id=":1226822716_3" function="internal">
        <lane id=":1226822716_3_0" index="0" speed="6.54" length="9.08" shape="352.19,1062.71 349.74,1063.09 347.99,1064.17 346.95,1065.94 346.61,1068.41"/>
    </edge>
    <edge id=":1226822716_4" function="internal">
        <lane id=":1226822716_4_0" index="0" speed="22.22" length="14.42" shape="352.19,1062.71 337.78,1062.87"/>
    </edge>
    <edge id=":1226822716_5" function="internal">
        <lane id=":1226822716_5_0" index="0" speed="8.01" length="4.07" shape="352.19,1062.71 348.34,1062.21 348.18,1062.11"/>
    </edge>
    <edge id=":1226822716_13" function="internal">
        <lane id=":1226822716_13_0" index="0" speed="8.01" length="10.13" shape="348.18,1062.11 345.57,1060.59 343.88,1057.86 343.28,1054.01"/>
    </edge>
    <edge id=":1226822716_6" function="internal">
        <lane id=":1226822716_6_0" index="0" speed="6.52" length="9.05" shape="346.48,1053.96 346.86,1056.42 347.94,1058.16 349.70,1059.19 352.15,1059.51"/>
    </edge>
    <edge id=":1226822716_7" function="internal">
        <lane id=":1226822716_7_0" index="0" speed="13.89" length="14.45" shape="346.48,1053.96 346.61,1068.41"/>
    </edge>
    <edge id=":1226822716_8" function="internal">
        <lane id=":1226822716_8_0" index="0" speed="7.99" length="4.11" shape="346.48,1053.96 345.98,1057.83 345.87,1058.01"/>
    </edge>
    <edge id=":1226822716_14" function="internal">
        <lane id=":1226822716_14_0" index="0" speed="7.99" length="10.10" shape="345.87,1058.01 344.37,1060.60 341.63,1062.28 337.78,1062.87"/>
    </edge>
    <edge id=":1226822716_9" function="internal">
        <lane id=":1226822716_9_0" index="0" speed="6.50" length="9.04" shape="337.75,1059.67 340.20,1059.30 341.93,1058.23 342.96,1056.47 343.28,1054.01"/>
    </edge>
    <edge id=":1226822716_10" function="internal">
        <lane id=":1226822716_10_0" index="0" speed="22.22" length="14.41" shape="337.75,1059.67 352.15,1059.51"/>
    </edge>
    <edge id=":1226822716_11" function="internal">
        <lane id=":1226822716_11_0" index="0" speed="7.99" length="4.06" shape="337.75,1059.67 341.61,1060.18 341.75,1060.27"/>
    </edge>
    <edge id=":1226822716_15" function="internal">
        <lane id=":1226822716_15_0" index="0" speed="7.99" length="10.15" shape="341.75,1060.27 344.38,1061.81 346.04,1064.56 346.61,1068.41"/>
    </edge>
    <edge id=":1320351133_0" function="internal">
        <lane id=":1320351133_0_0" index="0" speed="6.51" length="9.03" shape="865.70,363.05 865.34,360.60 864.28,358.86 862.53,357.82 860.08,357.48"/>
    </edge>
    <edge id=":1320351133_1" function="internal">
        <lane id=":1320351133_1_0" index="0" speed="22.22" length="14.41" shape="865.70,363.05 865.64,348.64"/>
    </edge>
    <edge id=":1320351133_2" function="internal">
        <lane id=":1320351133_2_0" index="0" speed="8.01" length="4.07" shape="865.70,363.05 866.24,359.20 866.33,359.04"/>
    </edge>
    <edge id=":1320351133_12" function="internal">
        <lane id=":1320351133_12_0" index="0" speed="8.01" length="10.13" shape="866.33,359.04 867.87,356.44 870.62,354.77 874.47,354.20"/>
    </edge>
    <edge id=":1320351133_3" function="internal">
        <lane id=":1320351133_3_0" index="0" speed="6.51" length="9.05" shape="874.49,357.40 872.03,357.76 870.29,358.82 869.24,360.58 868.90,363.04"/>
    </edge>
    <edge id=":1320351133_4" function="internal">
        <lane id=":1320351133_4_0" index="0" speed="18.05" length="14.41" shape="874.49,357.40 860.08,357.48"/>
    </edge>
    <edge id=":1320351133_5" function="internal">
        <lane id=":1320351133_5_0" index="0" speed="8.00" length="4.07" shape="874.49,357.40 870.63,356.87 870.48,356.78"/>
    </edge>
    <edge id=":1320351133_13" function="internal">
        <lane id=":1320351133_13_0" index="0" speed="8.00" length="10.13" shape="870.48,356.78 867.87,355.23 866.21,352.49 865.64,348.64"/>
    </edge>
    <edge id=":1320351133_6" function="internal">
        <lane id=":1320351133_6_0" index="0" speed="6.50" length="9.03" shape="868.84,348.63 869.20,351.08 870.26,352.82 872.01,353.86 874.47,354.20"/>
    </edge>
    <edge id=":1320351133_7" function="internal">
        <lane id=":1320351133_7_0" index="0" speed="22.22" length="14.41" shape="868.84,348.63 868.90,363.04"/>
    </edge>
    <edge id=":1320351133_8" function="internal">
        <lane id=":1320351133_8_0" index="0" speed="8.01" length="4.07" shape="868.84,348.63 868.31,352.48 868.22,352.63"/>
    </edge>
    <edge id=":1320351133_14" function="internal">
        <lane id=":1320351133_14_0" index="0" speed="8.01" length="10.14" shape="868.22,352.63 866.67,355.24 863.92,356.91 860.08,357.48"/>
    </edge>
    <edge id=":1320351133_9" function="internal">
        <lane id=":1320351133_9_0" index="0" speed="6.52" length="9.05" shape="860.06,354.28 862.51,353.91 864.26,352.85 865.30,351.10 865.64,348.64"/>
    </edge>
    <edge id=":1320351133_10" function="internal">
        <lane id=":1320351133_10_0" index="0" speed="18.05" length="14.41" shape="860.06,354.28 874.47,354.20"/>
    </edge>
    <edge id=":1320351133_11" function="internal">
        <lane id=":1320351133_11_0" index="0" speed="8.00" length="4.07" shape="860.06,354.28 863.91,354.81 864.06,354.90"/>
    </edge>
    <edge id=":1320351133_15" function="internal">
        <lane id=":1320351133_15_0" index="0" speed="8.00" length="10.13" shape="864.06,354.90 866.67,356.44 868.33,359.19 868.90,363.04"/>
    </edge>
    <edge id=":1320351332_0" function="internal">
        <lane id=":1320351332_0_0" index="0" speed="22.22" length="0.30" shape="337.21,736.60 336.92,736.60"/>
    </edge>
    <edge id=":1320351332_1" function="internal">
        <lane id=":1320351332_1_0" index="0" speed="22.22" length="0.30" shape="336.88,733.40 337.18,733.40"/>
    </edge>
    <edge id=":1324239166_0" function="internal">
        <lane id=":1324239166_0_0" index="0" speed="6.49" length="9.03" shape="866.43,527.14 866.08,524.68 865.02,522.94 863.26,521.91 860.80,521.59"/>
    </edge>
    <edge id=":1324239166_1" function="internal">
        <lane id=":1324239166_1_0" index="0" speed="22.22" length="14.46" shape="866.43,527.14 866.38,512.67"/>
    </edge>
    <edge id=":1324239166_2" function="internal">
        <lane id=":1324239166_2_0" index="0" speed="8.06" length="4.07" shape="866.43,527.14 866.97,523.27 867.06,523.12"/>
    </edge>
    <edge id=":1324239166_12" function="internal">
        <lane id=":1324239166_12_0" index="0" speed="8.06" length="10.19" shape="867.06,523.12 868.62,520.49 871.37,518.80 875.22,518.19"/>
    </edge>
    <edge id=":1324239166_3" function="internal">
        <lane id=":1324239166_3_0" index="0" speed="6.57" length="9.15" shape="875.27,521.39 872.80,521.78 871.03,522.87 869.98,524.65 869.63,527.13"/>
    </edge>
    <edge id=":1324239166_4" function="internal">
        <lane id=":1324239166_4_0" index="0" speed="13.89" length="14.47" shape="875.27,521.39 860.80,521.59"/>
    </edge>
    <edge id=":1324239166_5" function="internal">
        <lane id=":1324239166_5_0" index="0" speed="7.98" length="4.08" shape="875.27,521.39 871.39,520.89 871.24,520.80"/>
    </edge>
    <edge id=":1324239166_13" function="internal">
        <lane id=":1324239166_13_0" index="0" speed="7.98" length="10.15" shape="871.24,520.80 868.62,519.28 866.95,516.54 866.38,512.67"/>
    </edge>
    <edge id=":1324239166_6" function="internal">
        <lane id=":1324239166_6_0" index="0" speed="6.48" length="9.03" shape="869.58,512.66 869.94,515.11 871.00,516.85 872.76,517.87 875.22,518.19"/>
    </edge>
    <edge id=":1324239166_7" function="internal">
        <lane id=":1324239166_7_0" index="0" speed="22.22" length="14.47" shape="869.58,512.66 869.63,527.13"/>
    </edge>
    <edge id=":1324239166_8" function="internal">
        <lane id=":1324239166_8_0" index="0" speed="8.04" length="4.09" shape="869.58,512.66 869.04,516.52 868.95,516.68"/>
    </edge>
    <edge id=":1324239166_14" function="internal">
        <lane id=":1324239166_14_0" index="0" speed="8.04" length="10.17" shape="868.95,516.68 867.40,519.30 864.66,520.99 860.80,521.59"/>
    </edge>
    <edge id=":1324239166_9" function="internal">
        <lane id=":1324239166_9_0" index="0" speed="6.56" length="9.13" shape="860.76,518.39 863.23,518.01 864.99,516.93 866.04,515.15 866.38,512.67"/>
    </edge>
    <edge id=":1324239166_10" function="internal">
        <lane id=":1324239166_10_0" index="0" speed="13.89" length="14.46" shape="860.76,518.39 875.22,518.19"/>
    </edge>
    <edge id=":1324239166_11" function="internal">
        <lane id=":1324239166_11_0" index="0" speed="7.98" length="4.06" shape="860.76,518.39 864.63,518.90 864.77,518.98"/>
    </edge>
    <edge id=":1324239166_15" function="internal">
        <lane id=":1324239166_15_0" index="0" speed="7.98" length="10.16" shape="864.77,518.98 867.40,520.52 869.07,523.26 869.63,527.13"/>
    </edge>
    <edge id=":1324239193_0" function="internal">
        <lane id=":1324239193_0_0" index="0" speed="6.45" length="9.03" shape="1271.28,513.37 1273.75,513.05 1275.50,512.01 1276.53,510.26 1276.85,507.80"/>
    </edge>
    <edge id=":1324239193_1" function="internal">
        <lane id=":1324239193_1_0" index="0" speed="6.55" length="9.12" shape="1276.91,522.23 1276.57,519.78 1275.51,518.02 1273.74,516.95 1271.25,516.57"/>
    </edge>