<?xml version="1.0" encoding="UTF-8"?>

<!-- generated on 2024-09-28 10:33:10 by Eclipse SUMO jtrrouter Version 1.18.0
<configuration xmlns:xsi="http://www.w3.org/2001/XMLSchema-instance" xsi:noNamespaceSchemaLocation="http://sumo.dlr.de/xsd/jtrrouterConfiguration.xsd">

    <input>
        <net-file value="c:\Users\96551\OneDrive\TRANSIT\bin/../models/realarterials_RSL/roads.net.xml"/>
        <route-files value="c:\Users\96551\OneDrive\TRANSIT\bin/../models/realarterials_RSL\bus.flow.xml,c:\Users\96551\OneDrive\TRANSIT\bin/../models/realarterials_RSL\passenger.flow.xml"/>
    </input>

    <output>
        <output-file value="c:\Users\96551\OneDrive\TRANSIT\bin/../models/realarterials_RSL/routes.routes.xml"/>
        <named-routes value="true"/>
    </output>

    <processing>
        <turn-defaults value="25,50,25"/>
        <accept-all-destinations value="true"/>
        <allow-loops value="true"/>
    </processing>

</configuration>
-->

<routes xmlns:xsi="http://www.w3.org/2001/XMLSchema-instance" xsi:noNamespaceSchemaLocation="http://sumo.dlr.de/xsd/routes_file.xsd">
    <vType id="bus" vClass="bus"/>
    <route id="r0" edges="1305344369 1305344417 550618646 1305344381 1305344353 1305344354 1305344349 1305344348 1305344307 1305344306 1305344305 -1283813662 1151195218 1305344335 1305344336 1305344405 1305344406 1147005771 -1305344289 1305344302 1305344301 1305344300 1305344336 1305344405 1305344402 1305344403 366076085 1305344291 1305344407 1305344408 1305344366 1305344326 1305344325 1305344289 1305344374 1305344375 1305344397 1305344398 1305344399 1305344400 1305344401 1305344402 1305344403 1305344404 1305344289 1305344374 1305344375 1305344397 1305344398 1305344399 1305344400 1305344401 1305344339 1305344333 1305344334 1151195219 1283813661 1283813662 1305344367 1305344368 1305344380 -550618646 1305344418 1305344355 1305344329 1305344328 1305344327 1305344384 1305344385 1305344386 1305344387 1305344388 1305344389 1305344382 1305344383 -1305344289 1305344392 1305344311 1305344310 1305344309 1305344383 -1305344289 1305344392 1305344393 1305344394 1305344395 1305344396 1305344297 1305344349 1305344348 1305344347 366076089 117221839 1305344369 1305344370 1305344328 1305344327 1305344326 1305344311 1305344310 1305344309 1305344383 -1305344289 1305344332 1305344331 1305344330 1305344339 1305344333 1305344362 1305344363 -1305344291 -366076085 1305344404 1305344302 1305344301 1305344300 1305344334 1151195219 1283813661 1305344358 1305344359 1305344376 1305344377 1305344378 1305344379 1305344350 1305344351 1305344352 1305344353 1305344354 1305344355 1305344329 1305344328 1305344327 1305344326 1305344325 1305344332 1305344331 1305344330 1305344406 1147005771 -1305344289 1305344332 1305344331 1305344330 1305344406 1147005771 1268311831 1305344322 1305344321 1305344320 1305344319 1305344318 1305344317 1305344394 1305344395 1305344308 1305344417 1305344418 1305344296 1305344295 1305344294 1305344293 1305344292 1305344314 1305344313 1305344312 1305344361 1283813662 1305344367 1305344368 1305344369 1305344347 366076089 117221839 1305344380 1305344381 1305344353 1305344354 1305344355 1305344329 1305344328 1305344327 1305344384 1305344385 1305344386 1305344387 1305344388 1305344389 1268311830 42651275 1305344415 1305344329 1305344328 1305344327 1305344304 1305344338 1305344337 1305344364 1305344289 1268311831 1268311830 42651275 1305344415 1305344297 1305344349 1305344348 1305344347 366076089 117221839 1305344369 1305344370 1305344328 1305344327 1305344384 1305344385 1305344386 1305344387 1305344388 1305344389 1305344382 1305344383 -1305344289 1305344302 1305344407 1305344408 1305344303 1305344324 1305344323 -1266034025 1305344299 1305344298 1151195219 1283813661 1283813662 1305344367 1305344368 1305344380 -550618646 1305344418 1305344355 1305344329 1305344308 1305344307 1305344380 -550618646 1305344348 1305344370 1305344328 1305344327 1305344326 366076087 1305344337 -1305344291 -366076085 1305344404 1305344392 1305344393 1305344304 1305344303 1305344324 1305344323 -1266034025 1305344299 1305344298 1151195219 1283813661 1305344358 1305344359 1305344376 1305344377 1305344378 1305344379 1305344350 1305344351 1305344352 1305344316 -550618646 1305344418 1305344296 1305344295 1305344294 1305344293 1305344292 1305344314 1305344313 1305344312 1305344361 1283813662 1305344367 1305344368 1305344380 1305344381 1305344353 1305344354 1305344355 1305344346 42651277 1268311823 1305344322 1305344321 1305344320 1305344319 1305344318 1305344317 1305344304 1305344338 -366076087 1305344311 1305344310 1305344309 1305344383 -1305344289 1305344332 1305344331 1305344330 1305344339 1305344333 1305344362 1305344363 1305344364 1305344289 1268311831 1305344322 1305344321 1305344320 1305344319 1305344318 1305344317 1305344304 1305344303 1305344324 1305344323 -1266034025 1305344299 1305344298 1151195219 1283813661 1283813662 1305344367 1305344368 1305344380 1305344381 1305344353 1305344354 1305344355 1305344329 1305344328 1305344327 1305344384 1305344385 1305344386 1305344387 1305344388 1305344389 1268311830 1305344344 1305344343 1305344342 1305344341 1305344340 1305344308 1305344417 550618646 1305344315 -117221839 -366076089 1305344416 1305344370 1305344409 1305344410 1305344411 1305344412 1305344413 1268311823 1305344322 1305344321 1305344320 1305344319 1305344318 1305344317 1305344326 1305344325 1305344302 -1305344291 -366076085 1305344331 1305344330 1305344406 1147005771 -1305344289 1305344392 1305344393 1305344394 1305344395 1305344409 1305344410 1305344411 1305344412 1305344413 1268311823 1305344382 1305344371 1305344372 1305344373 1305344325 1305344302 -1305344291 -366076085 1305344331 1305344330 1305344406 1147005771 -1305344289 1305344302 1305344301 1305344300 1305344336 1305344405 1305344402 1305344403 366076085 1305344291 1305344301 1305344300 1305344334 1305344356 1305344357 1266034025 1305344390 1305344391 1305344365 1305344366 1305344384 1305344385 1305344386 1305344387 1305344388 1305344389 1268311830 42651275 1305344415 1305344329 1305344328 1305344327 1305344326 366076087 1305344408 1305344303 1305344324 1305344323 -1266034025 1305344299 1305344298 1151195219 1283813661 1305344358 1305344359 1305344376 1305344377 1305344378 1305344379 1305344350 1305344351 1305344352 1305344353 1305344354 1305344349 1305344348 1305344370 1305344396 1305344297 1305344349 1305344348 1305344307 1305344306 1305344305 -1283813662 1151195218 1305344356 1305344357 1266034025 1305344390 1305344391 1305344365 366076088 1305344416 1305344307 1305344306 1305344305 -1283813662 1151195218 1305344335 1305344362 1305344363 -1305344291 -366076085 1305344331 1305344330 1305344406 1147005771 -1305344289 1305344302 1305344301 1305344300 1305344334 1305344356 1305344357 1266034025 1305344390 1305344391 1305344365 1305344366 1305344384 1305344385 1305344386 1305344387 1305344388 1305344389 1305344382 1305344371 1305344372 1305344373 1305344393 1305344384 1305344385 1305344386 1305344387 1305344388 1305344389 1268311830 42651275 1305344415 1305344329 1305344409 1305344410 1305344411 1305344412 1305344413 42651275 1305344415 1305344297 1305344349 550618646 1305344381 1305344353 1305344354 1305344355 1305344329 1305344328 1305344327 1305344384 1305344385 1305344386 1305344387 1305344388 1305344389 1305344382 1305344371 1305344372 1305344373 366076087 1305344408 1305344303 1305344324 1305344323 -1266034025 1305344299 1305344298 1151195219 1283813661 1305344358 1305344359 1305344376 1305344377 1305344378 1305344379 1305344350 1305344351 1305344352 1305344316 -550618646 1305344418 1305344296 1305344295 1305344316 -550618646 1305344418 1305344296 1305344295 1305344294 1305344293 1305344292 1305344314 1305344313 1305344312 1305344361 1151195218 1305344335 1305344362 1305344363 -1305344291 -366076085 1305344331 1305344330 1305344406 1147005771 1268311831 1268311830 1305344344 1305344343 1305344342 1305344341 1305344340 1305344396 1305344346 42651277 1268311823 1305344322 1305344321 1305344320 1305344319 1305344318 1305344317 1305344326 1305344311 1305344310 1305344309 1305344383 -1305344289 1305344332 1305344331 1305344330 1305344406 1147005771 1268311831 1305344322 1305344321 1305344320 1305344319 1305344318 1305344317 1305344304 1305344303 1305344324 1305344323 -1266034025 1305344299 1305344298 1151195219 1283813661 1305344358 1305344359 1305344376 1305344377 1305344378 1305344379 1305344350 1305344351 1305344352 1305344353 1305344354 1305344355 1305344346 42651277 1305344344 1305344343 1305344342 1305344341 1305344340 1305344308 1305344347 366076089 117221839 1305344380 -550618646 1305344418 1305344355 1305344329 1305344308 1305344307 1305344380 -550618646 1305344348 1305344347 366076089 117221839 1305344306 1305344305 -1283813662 1151195218 1305344356 1305344357 1266034025 1305344390 1305344391 1305344365 366076088 366076089 117221839 1305344380 1305344381 1305344353 1305344354 1305344355 1305344329 1305344328 1305344327 1305344326 366076087 1305344337 -1305344291 -366076085 1305344331 1305344330 1305344339 1305344333 1305344334 1305344356 1305344357 1266034025 1305344390 1305344391 1305344365 1305344366 1305344394 1305344395 1305344409 1305344410 1305344411 1305344412 1305344413 1268311823 1305344322 1305344321 1305344320 1305344319 1305344318 1305344317 1305344326 1305344311 1305344310 1305344309 1305344383 -1305344289 1305344302 1305344407 -366076087 1305344325 1305344332 1305344331 1305344330 1305344406 1147005771 -1305344289 1305344332 1305344331 1305344330 1305344406 1147005771 1268311831 1268311830 1305344344 1305344343 1305344342 1305344341 1305344340 1305344308 1305344307 -117221839 -366076089 1305344416 1305344417 1305344418 1305344296 1305344295 1305344316 -550618646 1305344348 1305344370 1305344409 1305344410 1305344411 1305344412 1305344413 42651275 1305344415 1305344297 1305344349 550618646 1305344381 1305344353 1305344354 1305344355 1305344346 42651277 1268311823 1305344382 1305344383 -1305344289 1305344392 1305344393 1305344394 1305344395 1305344396 1305344297 1305344349 550618646 1305344381 1305344353 1305344354 1305344355 1305344346 42651277 1268311823 1305344322 1305344321 1305344320 1305344319 1305344318 1305344317 1305344394 1305344395 1305344409 1305344410 1305344411 1305344412 1305344413 1268311823 1305344382 1305344371 1305344372 1305344373 366076087 1305344337 -1305344291 -366076085 1305344331 1305344330 1305344406 1147005771 1268311831 1305344322 1305344321 1305344320 1305344319 1305344318 1305344317 1305344304 366076088 366076089 117221839 1305344380 -550618646 1305344348 1305344347 366076089 117221839 1305344306 1305344305 -1283813662 1305344358 1305344359 1305344376 1305344377 1305344378 1305344379 1305344350 1305344351 1305344352 1305344353 1305344354 1305344349 1305344348 1305344307 -117221839 -366076089 1305344416 1305344370 1305344409 1305344410 1305344411 1305344412 1305344413 1268311823 1305344382 1305344371 1305344372 1305344373 366076087 1305344337 -1305344291 -366076085 1305344404 1305344392 1305344393 1305344394 1305344395 1305344409 1305344410 1305344411 1305344412 1305344413 1268311823 1305344322 1305344321 1305344320 1305344319 1305344318 1305344317 1305344304 1305344303 1305344324 1305344323 -1266034025 1305344299 1305344298 1305344335 1305344336 1305344405 1305344402 1305344403 1305344404 1305344289"/>
    <vehicle id="bus_0.0" type="bus" depart="0.00" departPos="random" departSpeed="max" route="r0"/>
    <route id="r1" edges="1305344312 1305344361 1283813662 1305344367 1305344368 1305344369 1305344370 1305344328 1305344327 1305344384 1305344385 1305344386 1305344387 1305344388 1305344389 1305344382 1305344383 1305344374 1305344375 1305344397 1305344398 1305344399 1305344400 1305344401 1305344339 1305344333 1305344362 1305344363 -1305344291 -366076085 1305344331 1305344330 1305344406 1147005771 1268311831 1305344322 1305344321 1305344320 1305344319 1305344318 1305344317 1305344304 1305344338 1305344337 1305344301 1305344300 1305344334 1151195219 1283813661 1305344358 1305344359 1305344376 1305344377 1305344378 1305344379 1305344350 1305344351 1305344352 1305344316 -550618646 1305344418 1305344296 1305344295 1305344294 1305344293 1305344292 1305344314 1305344313 1305344312 1305344361 1151195218 1305344335 1305344362 1305344363 1305344407 -366076087 1305344393 1305344394 1305344395 1305344396 1305344346 42651277 1268311823 1305344322 1305344321 1305344320 1305344319 1305344318 1305344317 1305344394 1305344395 1305344396 1305344297 1305344349 1305344348 1305344370 1305344396 1305344297 1305344296 1305344295 1305344294 1305344293 1305344292 1305344314 1305344313 1305344312 1305344361 1283813662 1305344367 1305344368 -117221839 -366076089 -366076088 1305344366 1305344384 1305344385 1305344386 1305344387 1305344388 1305344389 1268311830 1305344344 1305344343 1305344342 1305344341 1305344340 1305344308 1305344307 1305344306 1305344305 -1283813662 1305344358 1305344359 1305344376 1305344377 1305344378 1305344379 1305344350 1305344351 1305344352 1305344353 1305344354 1305344349 1305344348 1305344347 -366076088 1305344303 1305344324 1305344323 -1266034025 1305344299 1305344298 1151195219 1283813661 1283813662 1305344367 1305344368 1305344380 1305344381 1305344353 1305344354 1305344355 1305344346 42651277 1305344344 1305344343 1305344342 1305344341 1305344340 1305344308 1305344347 366076089 117221839 1305344306 1305344305 -1283813662 1305344358 1305344359 1305344376 1305344377 1305344378 1305344379 1305344350 1305344351 1305344352 1305344316 1305344315 1305344369 1305344417 550618646 1305344381 1305344353 1305344354 1305344355 1305344346 42651277 1268311823 1305344322 1305344321 1305344320 1305344319 1305344318 1305344317 1305344326 1305344311 1305344310 1305344309 1305344383 1305344374 1305344375 1305344397 1305344398 1305344399 1305344400 1305344401 1305344402 1305344403 1305344404 1305344302 -1305344291 -366076085 1305344404 1305344302 -1305344291 -366076085 1305344404 1305344392 1305344393 1305344394 1305344395 1305344396 1305344297 1305344296 1305344295 1305344294 1305344293 1305344292 1305344314 1305344313 1305344312 1305344361 1283813662 1305344367 1305344368 1305344369 1305344347 366076089 117221839 1305344380 -550618646 1305344418 1305344296 1305344295 1305344316 -550618646 1305344348 1305344370 1305344328 1305344327 1305344384 1305344385 1305344386 1305344387 1305344388 1305344389 1305344382 1305344371 1305344372 1305344373 1305344325 1305344332 366076085 1305344291 1305344364 1305344289 1305344374 1305344375 1305344397 1305344398 1305344399 1305344400 1305344401 1305344402 1305344403 1305344404 1305344392 1305344393 1305344394 1305344395 1305344396 1305344346 42651277 1305344344 1305344343 1305344342 1305344341 1305344340 1305344328 1305344327 1305344304 1305344338 -366076087 1305344311 1305344310 1305344309 1305344383 -1305344289 1305344302 1305344301 1305344300 1305344334 1305344356 1305344357 1266034025 1305344390 1305344391 1305344365 1305344366 1305344326 1305344325 1305344332 1305344331 1305344330 1305344339 1305344333 1305344334 1151195219 1283813661 1305344358 1305344359 1305344376 1305344377 1305344378 1305344379 1305344350 1305344351 1305344352 1305344316 1305344315 1305344306 1305344305 -1283813662 1305344358 1305344359 1305344376 1305344377 1305344378 1305344379 1305344350 1305344351 1305344352 1305344316 -550618646 1305344418 1305344355 1305344346 42651277 1268311823 1305344382 1305344383 -1305344289 1305344302 1305344301 1305344300 1305344336 1305344405 1305344406 1147005771 -1305344289 1305344302 1305344301 1305344300 1305344334 1151195219 1283813661 1283813662 1305344367 1305344368 1305344369 1305344347 366076089 117221839 1305344380 -550618646 1305344348 1305344347 366076089 117221839 1305344380 1305344381 1305344353 1305344354 1305344349 550618646 1305344315 -117221839 -366076089 1305344416 1305344417 1305344418 1305344355 1305344329 1305344328 1305344327 1305344384 1305344385 1305344386 1305344387 1305344388 1305344389 1268311830 1305344344 1305344343 1305344342 1305344341 1305344340 1305344328 1305344327 1305344326 366076087 1305344408 1305344366 1305344326 1305344325 1305344332 1305344331 1305344330 1305344406 1147005771 -1305344289 1305344392 1305344393 1305344394 1305344395 1305344396 1305344346 42651277 1305344344 1305344343 1305344342 1305344341 1305344340 1305344328 1305344327 1305344304 1305344303 1305344324 1305344323 -1266034025 1305344299 1305344298 1151195219 1283813661 1283813662 1305344367 1305344368 1305344380 1305344381 1305344353 1305344354 1305344349 1305344348 1305344307 1305344306 1305344305 -1283813662 1305344358 1305344359 1305344376 1305344377 1305344378 1305344379 1305344350 1305344351 1305344352 1305344353 1305344354 1305344349 550618646 1305344315 1305344306 1305344305 -1283813662 1305344358 1305344359 1305344376 1305344377 1305344378 1305344379 1305344350 1305344351 1305344352 1305344316 -550618646 1305344418 1305344296 1305344295 1305344316 1305344315 -117221839 -366076089 1305344416 1305344417 550618646 1305344315 1305344306 1305344305 -1283813662 1305344358 1305344359 1305344376 1305344377 1305344378 1305344379 1305344350 1305344351 1305344352 1305344316 1305344315 -117221839 -366076089 1305344416 1305344417 1305344418 1305344296 1305344295 1305344316 1305344315 -117221839 -366076089 -366076088 1305344303 1305344324 1305344323 -1266034025 1305344299 1305344298 1151195219 1283813661 1305344358 1305344359 1305344376 1305344377 1305344378 1305344379 1305344350 1305344351 1305344352 1305344316 1305344315 1305344306 1305344305 -1283813662 1151195218 1305344356 1305344357 1266034025 1305344390 1305344391 1305344365 1305344366 1305344384 1305344385 1305344386 1305344387 1305344388 1305344389 1305344382 1305344383 -1305344289 1305344392 1305344311 1305344310 1305344309 1305344383 1305344374 1305344375 1305344397 1305344398 1305344399 1305344400 1305344401 1305344402 1305344403 1305344404 1305344392 1305344393 1305344394 1305344395 1305344308 1305344347 366076089 117221839 1305344369 1305344347 366076089 117221839 1305344380 1305344381 1305344353 1305344354 1305344349 1305344348 1305344307 1305344306 1305344305 -1283813662 1305344358 1305344359 1305344376 1305344377 1305344378 1305344379 1305344350 1305344351 1305344352 1305344353 1305344354 1305344355 1305344329 1305344308 1305344347 -366076088 1305344366 1305344384 1305344385 1305344386 1305344387 1305344388 1305344389 1305344382 1305344371 1305344372 1305344373 1305344393 1305344394 1305344395 1305344308 1305344307 -117221839 -366076089 -366076088 1305344303 1305344324 1305344323 -1266034025 1305344299 1305344298 1151195219 1283813661 1283813662 1305344367 1305344368 1305344369 1305344370 1305344328 1305344327 1305344384 1305344385 1305344386 1305344387 1305344388 1305344389 1305344382 1305344371 1305344372 1305344373 366076087 1305344337 -1305344291 -366076085 1305344331 1305344330 1305344339 1305344333 1305344362 1305344363 -1305344291 -366076085 1305344331 1305344330 1305344406 1147005771 1268311831 1305344322 1305344321 1305344320 1305344319 1305344318 1305344317 1305344304 1305344338 -366076087 1305344311 1305344310 1305344309 1305344383 1305344374 1305344375 1305344397 1305344398 1305344399 1305344400 1305344401 1305344339 1305344333 1305344334 1305344356 1305344357 1266034025 1305344390 1305344391 1305344365 1305344366 1305344326 1305344325 1305344289 1268311831 1305344322 1305344321 1305344320 1305344319 1305344318 1305344317 1305344304 1305344303 1305344324 1305344323 -1266034025 1305344299 1305344298 1151195219 1283813661 1305344358 1305344359 1305344376 1305344377 1305344378 1305344379 1305344350 1305344351 1305344352 1305344353 1305344354 1305344349 1305344348 1305344307 1305344380 1305344381 1305344353 1305344354 1305344349 1305344348 1305344370 1305344409 1305344410 1305344411 1305344412 1305344413 42651275 1305344415 1305344329 1305344328 1305344327 1305344326 1305344311 1305344310 1305344309 1305344383 -1305344289 1305344302 1305344407 -366076087 1305344393 1305344304 366076088 366076089 117221839 1305344369 1305344347 366076089 117221839 1305344306 1305344305 -1283813662 1151195218 1305344335 1305344362 1305344363 -1305344291 -366076085 1305344331 1305344330 1305344339 1305344333 1305344362 1305344363 1305344364 1305344332 1305344331 1305344330 1305344406 1147005771 1268311831 1305344322 1305344321 1305344320 1305344319 1305344318 1305344317 1305344394 1305344395 1305344409 1305344410 1305344411 1305344412 1305344413 42651275 1305344415 1305344329 1305344308 1305344347 366076089 117221839 1305344369 1305344417 1305344418 1305344355 1305344329 1305344409 1305344410 1305344411 1305344412 1305344413 1268311823 1305344382 1305344371 1305344372 1305344373 1305344393 1305344394 1305344395 1305344308 1305344347 -366076088 1305344338 -366076087 1305344311 1305344310 1305344309 1305344383 1305344374 1305344375 1305344397 1305344398 1305344399 1305344400 1305344401 1305344339 1305344333 1305344362 1305344363 -1305344291 -366076085 1305344404 1305344302 1305344407 1305344408 1305344303 1305344324 1305344323 -1266034025 1305344299 1305344298 1151195219 1283813661 1283813662 1305344367 1305344368 -117221839 -366076089 1305344416 1305344417 1305344418 1305344355 1305344346 42651277 1305344344 1305344343 1305344342 1305344341 1305344340 1305344396 1305344297 1305344349 550618646 1305344381 1305344353 1305344354 1305344355 1305344346 42651277 1268311823 1305344322 1305344321 1305344320 1305344319 1305344318 1305344317 1305344304 366076088 1305344416 1305344417 550618646 1305344381 1305344353 1305344354 1305344349 550618646 1305344381 1305344294 1305344293 1305344292 1305344314"/>
    <vehicle id="bus_1.0" type="bus" depart="0.00" departPos="random" departSpeed="max" route="r1"/>