<?xml version="1.0" encoding="utf-8"?>
<additional>
	<vType id="passenger" vClass="passenger"/>
	<vType id="bus" vClass="bus"/>
	<flow id="1.passenger" departSpeed="max" departLane="best" number="6" type="passenger" begin="0" end="7200">
		<route edges="-2489 394118249 157607756 28414221"/>
	</flow>
	<flow id="1.bus" departSpeed="max" departLane="best" number="1" type="bus" begin="0" end="7200">
		<route edges="-2489 394118249 157607756 28414221"/>
	</flow>
	<flow id="2.passenger" departSpeed="max" departLane="best" number="6" type="passenger" begin="0" end="7200">
		<route edges="-2489 394118249 157607756 394118248"/>
	</flow>
	<flow id="2.bus" departSpeed="max" departLane="best" number="1" type="bus" begin="0" end="7200">
		<route edges="-2489 394118249 157607756 394118248"/>
	</flow>
	<flow id="3.passenger" departSpeed="max" departLane="best" number="18" type="passenger" begin="0" end="7200">
		<route edges="-2489 851553864 28414195 28414192 961214969 961214966 28414138 961214965 961214979 961214980 508479360 157607691 28414148 961214970 123867444 28414147 508479350 961214974 508479355 961214973 961214972"/>
	</flow>
	<flow id="3.bus" departSpeed="max" departLane="best" number="2" type="bus" begin="0" end="7200">
		<route edges="-2489 851553864 28414195 28414192 961214969 961214966 28414138 961214965 961214979 961214980 508479360 157607691 28414148 961214970 123867444 28414147 508479350 961214974 508479355 961214973 961214972"/>
	</flow>
	<flow id="4.passenger" departSpeed="max" departLane="best" number="12" type="passenger" begin="0" end="7200">
		<route edges="-2489 851553864 28414195 28414192 961214969 961214966 28414138 961214965 961214979 961214980 508479360 157607691 28414148 961214970 123867444 508479309 508479313 961214964 961214963 28414207 961214962 157607710 394116561"/>
	</flow>
	<flow id="4.bus" departSpeed="max" departLane="best" number="1" type="bus" begin="0" end="7200">
		<route edges="-2489 851553864 28414195 28414192 961214969 961214966 28414138 961214965 961214979 961214980 508479360 157607691 28414148 961214970 123867444 508479309 508479313 961214964 961214963 28414207 961214962 157607710 394116561"/>
	</flow>
	<flow id="5.passenger" departSpeed="max" departLane="best" number="15" type="passenger" begin="0" end="7200">
		<route edges="-2489 851553864 28414195 28414192 961214969 961214966 28414138 961214965 961214979 961214980 508479360 157607691 28414148 961214970 123867444 508479309 508479313 961214964 961214963 28414207 961214962 28414204 961214961 961214960"/>
	</flow>
	<flow id="5.bus" departSpeed="max" departLane="best" number="2" type="bus" begin="0" end="7200">
		<route edges="-2489 851553864 28414195 28414192 961214969 961214966 28414138 961214965 961214979 961214980 508479360 157607691 28414148 961214970 123867444 508479309 508479313 961214964 961214963 28414207 961214962 28414204 961214961 961214960"/>
	</flow>
	<flow id="6.passenger" departSpeed="max" departLane="best" number="17" type="passenger" begin="0" end="7200">
		<route edges="-2489 851553864 28414195 28414192 961214969 961214966 28414138 961214965 961214979 961214980 508479360 961214981 961214982 544301010"/>
	</flow>
	<flow id="6.bus" departSpeed="max" departLane="best" number="2" type="bus" begin="0" end="7200">
		<route edges="-2489 851553864 28414195 28414192 961214969 961214966 28414138 961214965 961214979 961214980 508479360 961214981 961214982 544301010"/>
	</flow>
	<flow id="7.passenger" departSpeed="max" departLane="best" number="13" type="passenger" begin="0" end="7200">
		<route edges="-2489 851553864 28414195 28414192 961214969 961214966 28414138 961214965 28414139 508479336 30832610"/>
	</flow>
	<flow id="7.bus" departSpeed="max" departLane="best" number="2" type="bus" begin="0" end="7200">
		<route edges="-2489 851553864 28414195 28414192 961214969 961214966 28414138 961214965 28414139 508479336 30832610"/>
	</flow>
	<flow id="8.passenger" departSpeed="max" departLane="best" number="13" type="passenger" begin="0" end="7200">
		<route edges="-2500 417527262 157751115 30832610"/>
	</flow>
	<flow id="8.bus" departSpeed="max" departLane="best" number="2" type="bus" begin="0" end="7200">
		<route edges="-2500 417527262 157751115 30832610"/>
	</flow>
	<flow id="9.passenger" departSpeed="max" departLane="best" number="19" type="passenger" begin="0" end="7200">
		<route edges="-2500 157607517 508479360 157607691 28414148 961214970 123867444 28414147 508479350 961214974 508479355 961214973 961214972"/>
	</flow>
	<flow id="9.bus" departSpeed="max" departLane="best" number="3" type="bus" begin="0" end="7200">
		<route edges="-2500 157607517 508479360 157607691 28414148 961214970 123867444 28414147 508479350 961214974 508479355 961214973 961214972"/>
	</flow>
	<flow id="10.passenger" departSpeed="max" departLane="best" number="13" type="passenger" begin="0" end="7200">
		<route edges="-2500 157607517 508479360 157607691 28414148 961214970 123867444 508479309 508479313 961214964 961214963 28414207 961214962 157607710 394116561"/>
	</flow>
	<flow id="10.bus" departSpeed="max" departLane="best" number="2" type="bus" begin="0" end="7200">
		<route edges="-2500 157607517 508479360 157607691 28414148 961214970 123867444 508479309 508479313 961214964 961214963 28414207 961214962 157607710 394116561"/>
	</flow>
	<flow id="11.passenger" departSpeed="max" departLane="best" number="16" type="passenger" begin="0" end="7200">
		<route edges="-2500 157607517 508479360 157607691 28414148 961214970 123867444 508479309 508479313 961214964 961214963 28414207 961214962 28414204 961214961 961214960"/>
	</flow>
	<flow id="11.bus" departSpeed="max" departLane="best" number="2" type="bus" begin="0" end="7200">
		<route edges="-2500 157607517 508479360 157607691 28414148 961214970 123867444 508479309 508479313 961214964 961214963 28414207 961214962 28414204 961214961 961214960"/>
	</flow>
	<flow id="12.passenger" departSpeed="max" departLane="best" number="17" type="passenger" begin="0" end="7200">
		<route edges="-2500 157607517 508479360 961214981 961214982 544301010"/>
	</flow>
	<flow id="12.bus" departSpeed="max" departLane="best" number="3" type="bus" begin="0" end="7200">
		<route edges="-2500 157607517 508479360 961214981 961214982 544301010"/>
	</flow>
	<flow id="13.passenger" departSpeed="max" departLane="best" number="5" type="passenger" begin="0" end="7200">
		<route edges="157607717 157607701 508479343 961214961 961214960"/>
	</flow>
	<flow id="13.bus" departSpeed="max" departLane="best" number="1" type="bus" begin="0" end="7200">
		<route edges="157607717 157607701 508479343 961214961 961214960"/>
	</flow>
	<flow id="14.passenger" departSpeed="max" departLane="best" number="13" type="passenger" begin="0" end="7200">
		<route edges="28414218 8924864 508479340 28414195 28414192 961214969 961214966 28414138 961214965 961214979 961214980 508479360 157607691 28414148 961214970 123867444 28414147 508479350 961214974 508479355 961214973 961214972"/>
	</flow>
	<flow id="14.bus" departSpeed="max" departLane="best" number="1" type="bus" begin="0" end="7200">
		<route edges="28414218 8924864 508479340 28414195 28414192 961214969 961214966 28414138 961214965 961214979 961214980 508479360 157607691 28414148 961214970 123867444 28414147 508479350 961214974 508479355 961214973 961214972"/>
	</flow>
	<flow id="15.passenger" departSpeed="max" departLane="best" number="7" type="passenger" begin="0" end="7200">
		<route edges="28414218 8924864 508479340 28414195 28414192 961214969 961214966 28414138 961214965 961214979 961214980 508479360 157607691 28414148 961214970 123867444 508479309 508479313 961214964 961214963 28414207 961214962 157607710 394116561"/>
	</flow>
	<flow id="15.bus" departSpeed="max" departLane="best" number="1" type="bus" begin="0" end="7200">
		<route edges="28414218 8924864 508479340 28414195 28414192 961214969 961214966 28414138 961214965 961214979 961214980 508479360 157607691 28414148 961214970 123867444 508479309 508479313 961214964 961214963 28414207 961214962 157607710 394116561"/>
	</flow>
	<flow id="16.passenger" departSpeed="max" departLane="best" number="10" type="passenger" begin="0" end="7200">
		<route edges="28414218 8924864 508479340 28414195 28414192 961214969 961214966 28414138 961214965 961214979 961214980 508479360 157607691 28414148 961214970 123867444 508479309 508479313 961214964 961214963 28414207 961214962 28414204 961214961 961214960"/>
	</flow>
	<flow id="16.bus" departSpeed="max" departLane="best" number="1" type="bus" begin="0" end="7200">
		<route edges="28414218 8924864 508479340 28414195 28414192 961214969 961214966 28414138 961214965 961214979 961214980 508479360 157607691 28414148 961214970 123867444 508479309 508479313 961214964 961214963 28414207 961214962 28414204 961214961 961214960"/>
	</flow>
	<flow id="17.passenger" departSpeed="max" departLane="best" number="11" type="passenger" begin="0" end="7200">
		<route edges="28414218 8924864 508479340 28414195 28414192 961214969 961214966 28414138 961214965 961214979 961214980 508479360 961214981 961214982 544301010"/>
	</flow>
	<flow id="17.bus" departSpeed="max" departLane="best" number="1" type="bus" begin="0" end="7200">
		<route edges="28414218 8924864 508479340 28414195 28414192 961214969 961214966 28414138 961214965 961214979 961214980 508479360 961214981 961214982 544301010"/>
	</flow>
	<flow id="18.passenger" departSpeed="max" departLane="best" number="7" type="passenger" begin="0" end="7200">
		<route edges="28414218 8924864 508479340 28414195 28414192 961214969 961214966 28414138 961214965 28414139 508479336 30832610"/>
	</flow>
	<flow id="18.bus" departSpeed="max" departLane="best" number="1" type="bus" begin="0" end="7200">
		<route edges="28414218 8924864 508479340 28414195 28414192 961214969 961214966 28414138 961214965 28414139 508479336 30832610"/>
	</flow>
	<flow id="19.passenger" departSpeed="max" departLane="best" number="13" type="passenger" begin="0" end="7200">
		<route edges="30832608 961214975 961214976 961214982 544301010"/>
	</flow>
	<flow id="19.bus" departSpeed="max" departLane="best" number="2" type="bus" begin="0" end="7200">
		<route edges="30832608 961214975 961214976 961214982 544301010"/>
	</flow>
	<flow id="20.passenger" departSpeed="max" departLane="best" number="13" type="passenger" begin="0" end="7200">
		<route edges="30832608 508479317 961214970 123867444 28414147 508479350 417510574 961214977 961214978 961214969 961214966 28414138 961214965 28414139 508479336 30832610"/>
	</flow>
	<flow id="20.bus" departSpeed="max" departLane="best" number="1" type="bus" begin="0" end="7200">
		<route edges="30832608 508479317 961214970 123867444 28414147 508479350 417510574 961214977 961214978 961214969 961214966 28414138 961214965 28414139 508479336 30832610"/>
	</flow>
	<flow id="21.passenger" departSpeed="max" departLane="best" number="14" type="passenger" begin="0" end="7200">
		<route edges="30832608 508479317 961214970 123867444 28414147 508479350 961214974 508479355 961214973 961214972"/>
	</flow>
	<flow id="21.bus" departSpeed="max" departLane="best" number="2" type="bus" begin="0" end="7200">
		<route edges="30832608 508479317 961214970 123867444 28414147 508479350 961214974 508479355 961214973 961214972"/>
	</flow>
	<flow id="22.passenger" departSpeed="max" departLane="best" number="8" type="passenger" begin="0" end="7200">
		<route edges="30832608 508479317 961214970 123867444 508479309 508479313 961214964 961214963 28414207 961214962 157607710 394116561"/>
	</flow>
	<flow id="22.bus" departSpeed="max" departLane="best" number="1" type="bus" begin="0" end="7200">
		<route edges="30832608 508479317 961214970 123867444 508479309 508479313 961214964 961214963 28414207 961214962 157607710 394116561"/>
	</flow>
	<flow id="23.passenger" departSpeed="max" departLane="best" number="10" type="passenger" begin="0" end="7200">
		<route edges="30832608 508479317 961214970 123867444 508479309 508479313 961214964 961214963 28414207 961214962 28414204 961214961 961214960"/>
	</flow>
	<flow id="23.bus" departSpeed="max" departLane="best" number="1" type="bus" begin="0" end="7200">
		<route edges="30832608 508479317 961214970 123867444 508479309 508479313 961214964 961214963 28414207 961214962 28414204 961214961 961214960"/>
	</flow>
	<flow id="24.passenger" departSpeed="max" departLane="best" number="13" type="passenger" begin="0" end="7200">
		<route edges="394116560 8924864 508479340 28414195 28414192 961214969 961214966 28414138 961214965 961214979 961214980 508479360 157607691 28414148 961214970 123867444 28414147 508479350 961214974 508479355 961214973 961214972"/>
	</flow>
	<flow id="24.bus" departSpeed="max" departLane="best" number="1" type="bus" begin="0" end="7200">
		<route edges="394116560 8924864 508479340 28414195 28414192 961214969 961214966 28414138 961214965 961214979 961214980 508479360 157607691 28414148 961214970 123867444 28414147 508479350 961214974 508479355 961214973 961214972"/>
	</flow>
	<flow id="25.passenger" departSpeed="max" departLane="best" number="7" type="passenger" begin="0" end="7200">
		<route edges="394116560 8924864 508479340 28414195 28414192 961214969 961214966 28414138 961214965 961214979 961214980 508479360 157607691 28414148 961214970 123867444 508479309 508479313 961214964 961214963 28414207 961214962 157607710 394116561"/>
	</flow>
	<flow id="25.bus" departSpeed="max" departLane="best" number="1" type="bus" begin="0" end="7200">
		<route edges="394116560 8924864 508479340 28414195 28414192 961214969 961214966 28414138 961214965 961214979 961214980 508479360 157607691 28414148 961214970 123867444 508479309 508479313 961214964 961214963 28414207 961214962 157607710 394116561"/>
	</flow>
	<flow id="26.passenger" departSpeed="max" departLane="best" number="10" type="passenger" begin="0" end="7200">
		<route edges="394116560 8924864 508479340 28414195 28414192 961214969 961214966 28414138 961214965 961214979 961214980 508479360 157607691 28414148 961214970 123867444 508479309 508479313 961214964 961214963 28414207 961214962 28414204 961214961 961214960"/>
	</flow>
	<flow id="26.bus" departSpeed="max" departLane="best" number="1" type="bus" begin="0" end="7200">
		<route edges="394116560 8924864 508479340 28414195 28414192 961214969 961214966 28414138 961214965 961214979 961214980 508479360 157607691 28414148 961214970 123867444 508479309 508479313 961214964 961214963 28414207 961214962 28414204 961214961 961214960"/>
	</flow>
	<flow id="27.passenger" departSpeed="max" departLane="best" number="11" type="passenger" begin="0" end="7200">
		<route edges="394116560 8924864 508479340 28414195 28414192 961214969 961214966 28414138 961214965 961214979 961214980 508479360 961214981 961214982 544301010"/>
	</flow>
	<flow id="27.bus" departSpeed="max" departLane="best" number="1" type="bus" begin="0" end="7200">
		<route edges="394116560 8924864 508479340 28414195 28414192 961214969 961214966 28414138 961214965 961214979 961214980 508479360 961214981 961214982 544301010"/>
	</flow>
	<flow id="28.passenger" departSpeed="max" departLane="best" number="7" type="passenger" begin="0" end="7200">
		<route edges="394116560 8924864 508479340 28414195 28414192 961214969 961214966 28414138 961214965 28414139 508479336 30832610"/>
	</flow>
	<flow id="28.bus" departSpeed="max" departLane="best" number="1" type="bus" begin="0" end="7200">
		<route edges="394116560 8924864 508479340 28414195 28414192 961214969 961214966 28414138 961214965 28414139 508479336 30832610"/>
	</flow>
	<flow id="29.passenger" departSpeed="max" departLane="best" number="5" type="passenger" begin="0" end="7200">
		<route edges="394118250 157607701 508479343 961214961 961214960"/>
	</flow>
	<flow id="29.bus" departSpeed="max" departLane="best" number="1" type="bus" begin="0" end="7200">
		<route edges="394118250 157607701 508479343 961214961 961214960"/>
	</flow>
	<flow id="30.passenger" departSpeed="max" departLane="best" number="10" type="passenger" begin="0" end="7200">
		<route edges="879560477 417510458 157751130 961214964 961214963 28414207 961214962 157607710 394116561"/>
	</flow>
	<flow id="30.bus" departSpeed="max" departLane="best" number="1" type="bus" begin="0" end="7200">
		<route edges="879560477 417510458 157751130 961214964 961214963 28414207 961214962 157607710 394116561"/>
	</flow>
	<flow id="31.passenger" departSpeed="max" departLane="best" number="12" type="passenger" begin="0" end="7200">
		<route edges="879560477 417510458 157751130 961214964 961214963 28414207 961214962 28414204 961214961 961214960"/>
	</flow>
	<flow id="31.bus" departSpeed="max" departLane="best" number="2" type="bus" begin="0" end="7200">
		<route edges="879560477 417510458 157751130 961214964 961214963 28414207 961214962 28414204 961214961 961214960"/>
	</flow>
	<flow id="32.passenger" departSpeed="max" departLane="best" number="22" type="passenger" begin="0" end="7200">
		<route edges="879560477 851568240 508479350 417510574 961214977 961214978 961214969 961214966 28414138 961214965 961214979 961214980 508479360 961214981 961214982 544301010"/>
	</flow>
	<flow id="32.bus" departSpeed="max" departLane="best" number="3" type="bus" begin="0" end="7200">
		<route edges="879560477 851568240 508479350 417510574 961214977 961214978 961214969 961214966 28414138 961214965 961214979 961214980 508479360 961214981 961214982 544301010"/>
	</flow>
	<flow id="33.passenger" departSpeed="max" departLane="best" number="18" type="passenger" begin="0" end="7200">
		<route edges="879560477 851568240 508479350 417510574 961214977 961214978 961214969 961214966 28414138 961214965 28414139 508479336 30832610"/>
	</flow>
	<flow id="33.bus" departSpeed="max" departLane="best" number="2" type="bus" begin="0" end="7200">
		<route edges="879560477 851568240 508479350 417510574 961214977 961214978 961214969 961214966 28414138 961214965 28414139 508479336 30832610"/>
	</flow>
	<flow id="34.passenger" departSpeed="max" departLane="best" number="19" type="passenger" begin="0" end="7200">
		<route edges="879560477 851568240 508479350 961214974 508479355 961214973 961214972"/>
	</flow>
	<flow id="34.bus" departSpeed="max" departLane="best" number="3" type="bus" begin="0" end="7200">
		<route edges="879560477 851568240 508479350 961214974 508479355 961214973 961214972"/>
	</flow>
</additional>
