<configuration>
    <input>
        <net-file value="roads.net.xml"/>
        <additional-files value="flows.rou.xml,detectors.add.xml"/>
        <!-- additional-files value="routes.rou.xml,flows.rou.xml"/ -->
    </input>
    <time>
        <begin value="0"/>
        <end value="7200"/>
        <step-length value="1"/>
    </time>
</configuration>