<?xml version="1.0" encoding="UTF-8"?>

<!-- generated on 2024-10-09 10:31:44 by Eclipse SUMO netedit Version 1.18.0
<configuration xmlns:xsi="http://www.w3.org/2001/XMLSchema-instance" xsi:noNamespaceSchemaLocation="http://sumo.dlr.de/xsd/neteditConfiguration.xsd">

    <input>
        <sumo-net-file value="C:\Users\96551\OneDrive\TRANSIT\models\freeway_RSL\roads.net.xml"/>
    </input>

    <output>
        <output-file value="C:\Users\96551\OneDrive\TRANSIT\models\freeway_RSL\roads.net.xml"/>
    </output>

    <processing>
        <geometry.min-radius.fix.railways value="false"/>
        <geometry.max-grade.fix value="false"/>
        <offset.disable-normalization value="true"/>
        <lefthand value="0"/>
    </processing>

    <junctions>
        <no-turnarounds value="true"/>
        <junctions.corner-detail value="5"/>
        <junctions.limit-turn-speed value="5.50"/>
        <rectangular-lane-cut value="0"/>
    </junctions>

    <pedestrian>
        <walkingareas value="0"/>
    </pedestrian>

</configuration>
-->

<net version="1.16" junctionCornerDetail="5" limitTurnSpeed="5.50" xmlns:xsi="http://www.w3.org/2001/XMLSchema-instance" xsi:noNamespaceSchemaLocation="http://sumo.dlr.de/xsd/net_file.xsd">

    <location netOffset="-596769.17,-4135474.71" convBoundary="0.00,0.00,1097.84,1283.72" origBoundary="-121.907153,37.360922,-121.894811,37.372472" projParameter="+proj=utm +zone=10 +ellps=WGS84 +datum=WGS84 +units=m +no_defs"/>

    <type id="highway.motorway" priority="14" numLanes="2" speed="39.44" allow="private emergency authority army vip passenger hov taxi bus coach delivery truck trailer motorcycle evehicle custom1 custom2" oneway="1"/>
    <type id="highway.motorway_link" priority="9" numLanes="1" speed="22.22" allow="private emergency authority army vip passenger hov taxi bus coach delivery truck trailer motorcycle evehicle custom1 custom2" oneway="1"/>

    <edge id=":1698569412_0" function="internal">
        <lane id=":1698569412_0_0" index="0" speed="29.06" length="8.12" shape="393.64,414.26 391.67,415.41 390.52,416.54 389.39,417.70 387.47,418.95"/>
        <lane id=":1698569412_0_1" index="1" speed="29.06" length="8.12" shape="392.35,411.34 390.33,412.50 389.15,413.64 388.00,414.82 386.03,416.09"/>
        <lane id=":1698569412_0_2" index="2" speed="29.06" length="8.12" shape="391.05,408.41 388.99,409.59 387.79,410.75 386.60,411.94 384.59,413.23"/>
        <lane id=":1698569412_0_3" index="3" speed="29.06" length="8.12" shape="389.76,405.48 387.66,406.69 386.42,407.86 385.20,409.06 383.15,410.37"/>
        <lane id=":1698569412_0_4" index="4" speed="29.06" length="8.12" shape="388.47,402.55 386.32,403.78 385.05,404.96 383.80,406.18 381.71,407.52"/>
    </edge>
    <edge id=":1698569475_0" function="internal">
        <lane id=":1698569475_0_0" index="0" speed="22.22" length="8.94" shape="637.73,867.86 638.35,865.45 638.67,863.78 638.81,862.08 638.85,859.60"/>
        <lane id=":1698569475_0_1" index="1" speed="22.22" length="8.94" shape="637.73,867.86 638.90,865.33 640.32,863.80 641.52,862.25 642.05,859.64"/>
    </edge>
    <edge id=":1698569630_0" function="internal">
        <lane id=":1698569630_0_0" index="0" speed="22.22" length="7.62" shape="459.25,1001.04 459.07,998.85 458.52,997.40 457.90,995.96 457.49,993.77"/>
        <lane id=":1698569630_0_1" index="1" speed="22.22" length="7.62" shape="459.25,1001.04 459.57,998.79 460.12,997.28 460.60,995.77 460.68,993.53"/>
    </edge>
    <edge id=":1700030862_0" function="internal">
        <lane id=":1700030862_0_0" index="0" speed="22.22" length="0.72" shape="728.25,335.67 728.08,335.80 727.95,335.87 727.81,335.92 727.61,335.96"/>
    </edge>
    <edge id=":1700030875_0" function="internal">
        <lane id=":1700030875_0_0" index="0" speed="22.22" length="0.76" shape="189.98,492.87 190.07,492.67 190.15,492.53 190.25,492.42 190.42,492.27"/>
    </edge>
    <edge id=":1708555151_0" function="internal">
        <lane id=":1708555151_0_0" index="0" speed="22.22" length="23.15" shape="403.69,812.58 402.40,805.57 400.71,799.49 398.84,794.44 397.00,790.53"/>
    </edge>
    <edge id=":1708555151_1" function="internal">
        <lane id=":1708555151_1_0" index="0" speed="22.22" length="23.13" shape="403.69,812.58 401.45,789.50"/>
        <lane id=":1708555151_1_1" index="1" speed="22.22" length="23.13" shape="406.86,812.14 404.63,789.16"/>
    </edge>
    <edge id=":245812719_0" function="internal">
        <lane id=":245812719_0_0" index="0" speed="10.45" length="3.80" shape="518.20,325.33 519.25,324.93 519.94,324.57 520.54,324.08 521.33,323.28"/>
    </edge>
    <edge id=":245812719_1" function="internal">
        <lane id=":245812719_1_0" index="0" speed="29.06" length="8.63" shape="519.29,328.34 521.81,327.39 523.54,326.72 525.29,326.14 527.89,325.44"/>
        <lane id=":245812719_1_1" index="1" speed="29.06" length="8.63" shape="520.37,331.35 522.83,330.43 524.51,329.77 526.22,329.20 528.76,328.52"/>
        <lane id=":245812719_1_2" index="2" speed="29.06" length="8.63" shape="521.46,334.36 523.85,333.46 525.49,332.83 527.15,332.27 529.62,331.60"/>
        <lane id=":245812719_1_3" index="3" speed="29.06" length="8.63" shape="522.54,337.38 524.88,336.50 526.47,335.88 528.08,335.33 530.49,334.69"/>
        <lane id=":245812719_1_4" index="4" speed="29.06" length="8.63" shape="523.63,340.39 525.90,339.53 527.44,338.93 529.02,338.40 531.35,337.77"/>
    </edge>
    <edge id=":245812727_0" function="internal">
        <lane id=":245812727_0_0" index="0" speed="11.15" length="9.58" shape="771.04,286.42 773.12,287.88 774.60,288.97 776.18,289.58 778.59,289.60"/>
        <lane id=":245812727_0_1" index="1" speed="12.47" length="9.58" shape="771.04,286.42 773.36,288.59 774.68,290.77 776.15,292.37 778.91,292.79"/>
    </edge>
    <edge id=":245812727_2" function="internal">
        <lane id=":245812727_2_0" index="0" speed="29.06" length="8.55" shape="770.13,290.29 778.59,289.60"/>
        <lane id=":245812727_2_1" index="1" speed="29.06" length="8.55" shape="770.42,293.48 778.91,292.79"/>
        <lane id=":245812727_2_2" index="2" speed="29.06" length="8.55" shape="770.70,296.67 779.22,295.97"/>
        <lane id=":245812727_2_3" index="3" speed="29.06" length="8.55" shape="770.99,299.85 779.54,299.16"/>
        <lane id=":245812727_2_4" index="4" speed="29.06" length="8.55" shape="771.27,303.04 779.86,302.34"/>
    </edge>
    <edge id=":245812729_0" function="internal">
        <lane id=":245812729_0_0" index="0" speed="20.62" length="10.81" shape="184.11,502.47 186.33,500.14 187.64,498.28 188.59,496.25 189.76,493.41"/>
    </edge>
    <edge id=":245812729_1" function="internal">
        <lane id=":245812729_1_0" index="0" speed="29.06" length="10.70" shape="184.11,502.47 186.71,500.36 188.80,499.33 190.98,498.39 193.83,496.56"/>
        <lane id=":245812729_1_1" index="1" speed="29.06" length="10.70" shape="186.33,504.77 188.86,502.74 190.89,501.75 193.01,500.86 195.77,499.11"/>
        <lane id=":245812729_1_2" index="2" speed="29.06" length="10.70" shape="188.56,507.07 191.01,505.11 192.98,504.18 195.04,503.34 197.72,501.65"/>
        <lane id=":245812729_1_3" index="3" speed="29.06" length="10.70" shape="190.79,509.37 193.15,507.49 195.07,506.61 197.07,505.81 199.66,504.19"/>
        <lane id=":245812729_1_4" index="4" speed="29.06" length="10.70" shape="193.01,511.66 195.30,509.86 197.16,509.03 199.10,508.29 201.60,506.73"/>
    </edge>
    <edge id=":25457976_0" function="internal">
        <lane id=":25457976_0_0" index="0" speed="9.45" length="6.64" shape="534.65,366.09 532.82,365.34 531.49,364.83 530.16,364.73 528.32,365.19"/>
    </edge>
    <edge id=":25457976_1" function="internal">
        <lane id=":25457976_1_0" index="0" speed="29.06" length="8.00" shape="534.78,362.12 532.58,362.40 530.99,362.07 529.41,361.78 527.24,362.18"/>
        <lane id=":25457976_1_1" index="1" speed="29.06" length="8.00" shape="533.89,359.05 531.63,359.34 530.00,359.02 528.39,358.75 526.17,359.16"/>
        <lane id=":25457976_1_2" index="2" speed="29.06" length="8.00" shape="532.99,355.97 530.68,356.28 529.02,355.98 527.37,355.72 525.10,356.15"/>
        <lane id=":25457976_1_3" index="3" speed="29.06" length="8.00" shape="532.10,352.90 529.73,353.22 528.03,352.93 526.34,352.69 524.02,353.13"/>
        <lane id=":25457976_1_4" index="4" speed="29.06" length="8.00" shape="531.20,349.83 528.79,350.17 527.05,349.89 525.32,349.65 522.95,350.12"/>
    </edge>
    <edge id=":26404564_0" function="internal">
        <lane id=":26404564_0_0" index="0" speed="15.13" length="13.11" shape="512.08,750.87 514.18,748.20 515.80,746.38 516.90,744.39 517.43,741.19"/>
        <lane id=":26404564_0_1" index="1" speed="16.21" length="13.11" shape="514.73,752.66 517.11,749.57 518.88,747.42 520.05,745.07 520.62,741.37"/>
        <lane id=":26404564_0_2" index="2" speed="17.31" length="13.11" shape="514.73,752.66 517.79,749.42 520.63,747.56 522.80,745.47 523.82,741.55"/>
    </edge>
    <edge id=":26404564_3" function="internal">
        <lane id=":26404564_3_0" index="0" speed="29.06" length="12.72" shape="518.42,753.89 518.85,750.15 519.51,747.63 520.17,745.11 520.62,741.37"/>
        <lane id=":26404564_3_1" index="1" speed="29.06" length="12.72" shape="521.61,754.06 522.04,750.32 522.70,747.80 523.37,745.28 523.82,741.55"/>
        <lane id=":26404564_3_2" index="2" speed="29.06" length="12.72" shape="524.81,754.22 525.24,750.48 525.90,747.97 526.56,745.46 527.01,741.72"/>
        <lane id=":26404564_3_3" index="3" speed="29.06" length="12.72" shape="528.00,754.38 528.43,750.65 529.09,748.14 529.76,745.63 530.21,741.90"/>
    </edge>
    <edge id=":26404567_0" function="internal">
        <lane id=":26404567_0_0" index="0" speed="29.06" length="7.48" shape="483.94,445.16 483.61,443.06 483.84,441.54 484.06,440.03 483.68,437.95"/>
        <lane id=":26404567_0_1" index="1" speed="29.06" length="7.48" shape="487.00,444.21 486.66,442.09 486.89,440.55 487.10,439.03 486.70,436.92"/>
        <lane id=":26404567_0_2" index="2" speed="29.06" length="7.48" shape="490.05,443.27 489.71,441.12 489.93,439.57 490.13,438.02 489.73,435.89"/>
        <lane id=":26404567_0_3" index="3" speed="29.06" length="7.48" shape="493.11,442.33 492.76,440.15 492.98,438.58 493.17,437.02 492.76,434.86"/>
        <lane id=":26404567_0_4" index="4" speed="29.06" length="7.48" shape="496.17,441.39 495.81,439.18 496.02,437.59 496.21,436.01 495.79,433.82"/>
    </edge>
    <edge id=":26404567_5" function="internal">
        <lane id=":26404567_5_0" index="0" speed="10.12" length="6.41" shape="480.00,445.17 480.62,443.36 481.04,442.06 481.09,440.77 480.65,438.98"/>
    </edge>
    <edge id=":26404574_0" function="internal">
        <lane id=":26404574_0_0" index="0" speed="29.06" length="7.91" shape="410.86,258.97 409.68,257.12 408.53,256.09 407.33,255.09 405.99,253.33"/>
        <lane id=":26404574_0_1" index="1" speed="29.06" length="7.91" shape="413.74,257.57 412.52,255.65 411.35,254.57 410.12,253.52 408.74,251.69"/>
        <lane id=":26404574_0_2" index="2" speed="29.06" length="7.91" shape="416.62,256.17 415.37,254.18 414.16,253.05 412.91,251.94 411.48,250.05"/>
        <lane id=":26404574_0_3" index="3" speed="29.06" length="7.91" shape="419.49,254.77 418.21,252.71 416.98,251.52 415.69,250.37 414.23,248.40"/>
    </edge>
    <edge id=":312118587_0" function="internal">
        <lane id=":312118587_0_0" index="0" speed="29.06" length="0.82" shape="519.53,676.54 519.52,676.01"/>
        <lane id=":312118587_0_1" index="1" speed="29.06" length="0.82" shape="522.73,676.55 522.72,675.88"/>
        <lane id=":312118587_0_2" index="2" speed="29.06" length="0.82" shape="525.93,676.57 525.91,675.75"/>
        <lane id=":312118587_0_3" index="3" speed="29.06" length="0.82" shape="529.13,676.59 529.11,675.62"/>
        <lane id=":312118587_0_4" index="4" speed="29.06" length="0.82" shape="532.33,676.61 532.31,675.48"/>
    </edge>
    <edge id=":312118634_0" function="internal">
        <lane id=":312118634_0_0" index="0" speed="29.06" length="0.28" shape="546.41,669.17 546.42,669.64"/>
        <lane id=":312118634_0_1" index="1" speed="29.06" length="0.28" shape="543.21,669.37 543.22,669.65"/>
        <lane id=":312118634_0_2" index="2" speed="29.06" length="0.28" shape="540.02,669.57 540.02,669.66"/>
    </edge>
    <edge id=":312118657_0" function="internal">
        <lane id=":312118657_0_0" index="0" speed="9.70" length="7.50" shape="423.90,293.28 422.74,291.50 421.53,290.62 419.99,290.09 417.86,289.36"/>
    </edge>
    <edge id=":312118657_1" function="internal">
        <lane id=":312118657_1_0" index="0" speed="29.06" length="7.53" shape="423.90,293.28 420.64,286.38"/>
        <lane id=":312118657_1_1" index="1" speed="29.06" length="7.53" shape="426.76,291.84 423.51,284.98"/>
        <lane id=":312118657_1_2" index="2" speed="29.06" length="7.53" shape="429.61,290.39 426.39,283.58"/>
        <lane id=":312118657_1_3" index="3" speed="29.06" length="7.53" shape="432.47,288.95 429.27,282.18"/>
        <lane id=":312118657_1_4" index="4" speed="29.06" length="7.53" shape="435.32,287.50 432.15,280.78"/>
    </edge>
    <edge id=":312118717_0" function="internal">
        <lane id=":312118717_0_0" index="0" speed="22.22" length="0.28" shape="462.27,284.12 462.29,284.40"/>
    </edge>
    <edge id=":312118874_0" function="internal">
        <lane id=":312118874_0_0" index="0" speed="22.22" length="0.88" shape="481.14,866.50 481.25,866.43 481.33,866.38 481.39,866.32 481.48,866.23"/>
        <lane id=":312118874_0_1" index="1" speed="22.22" length="0.88" shape="482.78,869.25 483.11,869.05 483.34,868.89 483.53,868.71 483.81,868.43"/>
    </edge>
    <edge id=":312119654_0" function="internal">
        <lane id=":312119654_0_0" index="0" speed="22.22" length="9.03" shape="416.65,788.42 416.17,791.06 415.78,792.88 415.61,794.70 415.79,797.35"/>
    </edge>
    <edge id=":312119654_1" function="internal">
        <lane id=":312119654_1_0" index="0" speed="22.22" length="9.41" shape="413.08,788.37 413.17,791.14 412.85,793.05 412.53,794.96 412.61,797.73"/>
    </edge>
    <edge id=":33102541_0" function="internal">
        <lane id=":33102541_0_0" index="0" speed="25.64" length="14.89" shape="545.23,760.34 545.42,765.05 546.11,768.56 547.10,771.58 548.19,774.82"/>
    </edge>
    <edge id=":33102541_1" function="internal">
        <lane id=":33102541_1_0" index="0" speed="29.06" length="14.85" shape="545.23,760.34 544.99,764.80 544.58,767.83 544.08,770.86 543.57,775.29"/>
        <lane id=":33102541_1_1" index="1" speed="29.06" length="14.85" shape="542.03,760.27 541.79,764.67 541.39,767.66 540.89,770.64 540.39,775.02"/>
        <lane id=":33102541_1_2" index="2" speed="29.06" length="14.85" shape="538.83,760.21 538.60,764.54 538.19,767.48 537.70,770.43 537.20,774.74"/>
    </edge>
    <edge id=":3742063551_0" function="internal">
        <lane id=":3742063551_0_0" index="0" speed="29.06" length="8.19" shape="511.88,445.31 512.78,447.56 513.74,448.96 514.69,450.37 515.56,452.62"/>
        <lane id=":3742063551_0_1" index="1" speed="29.06" length="8.19" shape="508.81,446.18 509.69,448.41 510.65,449.81 511.60,451.21 512.46,453.45"/>
        <lane id=":3742063551_0_2" index="2" speed="29.06" length="8.19" shape="505.73,447.05 506.61,449.27 507.57,450.66 508.52,452.05 509.37,454.28"/>
    </edge>
    <edge id=":3742063554_0" function="internal">
        <lane id=":3742063554_0_0" index="0" speed="9.39" length="5.25" shape="542.68,574.19 541.90,575.54 541.41,576.53 541.21,577.57 541.27,579.10"/>
    </edge>
    <edge id=":3742063554_1" function="internal">
        <lane id=":3742063554_1_0" index="0" speed="29.06" length="5.98" shape="538.78,573.45 538.79,575.22 538.46,576.43 538.12,577.65 538.08,579.42"/>
        <lane id=":3742063554_1_1" index="1" speed="29.06" length="5.98" shape="535.60,573.86 535.61,575.61 535.28,576.80 534.94,578.00 534.90,579.75"/>
        <lane id=":3742063554_1_2" index="2" speed="29.06" length="5.98" shape="532.43,574.28 532.44,575.99 532.10,577.17 531.76,578.35 531.72,580.07"/>
    </edge>
    <edge id=":4977823044_0" function="internal">
        <lane id=":4977823044_0_0" index="0" speed="22.22" length="0.10" shape="673.71,282.26 673.71,282.26"/>
    </edge>
    <edge id=":4977823045_0" function="internal">
        <lane id=":4977823045_0_0" index="0" speed="22.22" length="0.31" shape="362.87,356.69 362.94,356.75 362.99,356.79 363.05,356.82 363.13,356.87"/>
    </edge>
    <edge id=":4977823046_0" function="internal">
        <lane id=":4977823046_0_0" index="0" speed="22.22" length="0.59" shape="474.41,478.03 474.53,477.91 474.61,477.81 474.67,477.71 474.74,477.55"/>
    </edge>
    <edge id=":4977823048_0" function="internal">
        <lane id=":4977823048_0_0" index="0" speed="11.50" length="8.28" shape="368.04,144.93 369.68,146.62 371.17,147.36 372.92,147.72 375.33,148.27"/>
    </edge>
    <edge id=":4977823048_1" function="internal">
        <lane id=":4977823048_1_0" index="0" speed="29.06" length="8.28" shape="368.04,144.93 373.10,151.55"/>
        <lane id=":4977823048_1_1" index="1" speed="29.06" length="8.28" shape="365.53,146.92 370.56,153.51"/>
        <lane id=":4977823048_1_2" index="2" speed="29.06" length="8.28" shape="363.02,148.90 368.03,155.47"/>
        <lane id=":4977823048_1_3" index="3" speed="29.06" length="8.28" shape="360.51,150.89 365.50,157.43"/>
    </edge>
    <edge id=":4977823066_0" function="internal">
        <lane id=":4977823066_0_0" index="0" speed="22.22" length="8.21" shape="575.70,956.41 573.99,958.10 573.09,959.54 572.19,960.97 570.48,962.67"/>
    </edge>
    <edge id=":52140457_0" function="internal">
        <lane id=":52140457_0_0" index="0" speed="25.64" length="7.77" shape="343.98,166.12 343.26,163.92 342.79,162.38 342.13,160.96 340.83,159.09"/>
    </edge>
    <edge id=":52140457_1" function="internal">
        <lane id=":52140457_1_0" index="0" speed="29.06" length="8.18" shape="347.15,164.34 345.84,162.31 345.24,160.73 344.65,159.15 343.35,157.12"/>
        <lane id=":52140457_1_1" index="1" speed="29.06" length="8.18" shape="349.66,162.36 348.35,160.33 347.75,158.75 347.16,157.17 345.87,155.14"/>
        <lane id=":52140457_1_2" index="2" speed="29.06" length="8.18" shape="352.17,160.37 350.86,158.35 350.27,156.78 349.68,155.20 348.39,153.17"/>
        <lane id=":52140457_1_3" index="3" speed="29.06" length="8.18" shape="354.67,158.38 353.38,156.37 352.78,154.80 352.20,153.22 350.91,151.20"/>
    </edge>
    <edge id=":5261705797_0" function="internal">
        <lane id=":5261705797_0_0" index="0" speed="29.06" length="0.30" shape="956.99,271.83 957.32,271.79"/>
        <lane id=":5261705797_0_1" index="1" speed="29.06" length="0.30" shape="957.30,275.01 957.62,274.98"/>
        <lane id=":5261705797_0_2" index="2" speed="29.06" length="0.30" shape="957.62,278.19 957.92,278.17"/>
        <lane id=":5261705797_0_3" index="3" speed="29.06" length="0.30" shape="957.94,281.38 958.22,281.35"/>
        <lane id=":5261705797_0_4" index="4" speed="29.06" length="0.30" shape="958.26,284.56 958.52,284.54"/>
    </edge>
    <edge id=":65391242_0" function="internal">
        <lane id=":65391242_0_0" index="0" speed="25.64" length="15.06" shape="446.90,1153.10 447.25,1148.37 446.65,1144.76 445.90,1141.58 445.78,1138.19"/>
    </edge>
    <edge id=":65391242_1" function="internal">
        <lane id=":65391242_1_0" index="0" speed="29.06" length="15.25" shape="446.90,1153.10 450.01,1138.13"/>
        <lane id=":65391242_1_1" index="1" speed="29.06" length="15.25" shape="450.04,1153.72 453.15,1138.78"/>
        <lane id=":65391242_1_2" index="2" speed="29.06" length="15.25" shape="453.18,1154.34 456.28,1139.42"/>
        <lane id=":65391242_1_3" index="3" speed="29.06" length="15.25" shape="456.32,1154.96 459.42,1140.06"/>
    </edge>
    <edge id=":65394535_0" function="internal">
        <lane id=":65394535_0_0" index="0" speed="10.92" length="10.97" shape="504.77,409.63 506.03,412.48 507.57,414.81 509.40,416.63 511.51,417.95"/>
    </edge>
    <edge id=":65394535_1" function="internal">
        <lane id=":65394535_1_0" index="0" speed="29.06" length="11.43" shape="504.77,409.63 508.28,420.75"/>
        <lane id=":65394535_1_1" index="1" speed="29.06" length="11.43" shape="501.76,410.71 505.22,421.69"/>
        <lane id=":65394535_1_2" index="2" speed="29.06" length="11.43" shape="498.75,411.80 502.16,422.63"/>
        <lane id=":65394535_1_3" index="3" speed="29.06" length="11.43" shape="495.74,412.88 499.10,423.56"/>
    </edge>
    <edge id=":65401537_0" function="internal">
        <lane id=":65401537_0_0" index="0" speed="11.41" length="4.70" shape="415.60,360.94 416.99,361.12 417.95,361.19 418.90,361.07 420.22,360.65"/>
    </edge>
    <edge id=":65401537_1" function="internal">
        <lane id=":65401537_1_0" index="0" speed="29.06" length="5.03" shape="416.12,364.76 417.61,364.29 418.70,364.17 419.79,364.07 421.30,363.66"/>
        <lane id=":65401537_1_1" index="1" speed="29.06" length="5.03" shape="417.34,367.72 418.80,367.26 419.85,367.15 420.91,367.06 422.39,366.67"/>
        <lane id=":65401537_1_2" index="2" speed="29.06" length="5.03" shape="418.57,370.68 419.98,370.24 421.00,370.14 422.04,370.06 423.47,369.68"/>
        <lane id=":65401537_1_3" index="3" speed="29.06" length="5.03" shape="419.79,373.63 421.16,373.21 422.16,373.12 423.16,373.06 424.56,372.69"/>
        <lane id=":65401537_1_4" index="4" speed="29.06" length="5.03" shape="421.01,376.59 422.34,376.18 423.31,376.11 424.29,376.05 425.64,375.70"/>
    </edge>
    <edge id=":65401606_0" function="internal">
        <lane id=":65401606_0_0" index="0" speed="9.54" length="3.94" shape="462.12,292.58 461.99,293.74 462.00,294.55 462.19,295.33 462.61,296.41"/>
    </edge>
    <edge id=":65401606_1" function="internal">
        <lane id=":65401606_1_0" index="0" speed="29.06" length="10.07" shape="455.47,288.01 456.87,290.79 457.73,292.74 458.49,294.74 459.65,297.63"/>
        <lane id=":65401606_1_1" index="1" speed="29.06" length="10.07" shape="452.63,289.49 454.00,292.20 454.83,294.10 455.57,296.04 456.69,298.86"/>
        <lane id=":65401606_1_2" index="2" speed="29.06" length="10.07" shape="449.80,290.98 451.13,293.61 451.93,295.46 452.65,297.34 453.74,300.08"/>
        <lane id=":65401606_1_3" index="3" speed="29.06" length="10.07" shape="446.96,292.46 448.25,295.01 449.03,296.81 449.72,298.65 450.78,301.31"/>
    </edge>
    <edge id=":65405085_0" function="internal">
        <lane id=":65405085_0_0" index="0" speed="10.68" length="6.50" shape="479.78,1156.42 478.38,1157.77 477.40,1158.74 476.73,1159.86 476.25,1161.68"/>
    </edge>
    <edge id=":65405085_1" function="internal">
        <lane id=":65405085_1_0" index="0" speed="29.06" length="7.47" shape="476.34,1154.59 475.60,1156.60 474.68,1157.84 473.77,1159.08 473.10,1161.11"/>
        <lane id=":65405085_1_1" index="1" speed="29.06" length="7.47" shape="473.22,1153.91 472.47,1155.96 471.54,1157.21 470.63,1158.48 469.95,1160.54"/>
        <lane id=":65405085_1_2" index="2" speed="29.06" length="7.47" shape="470.09,1153.23 469.33,1155.31 468.40,1156.59 467.49,1157.88 466.80,1159.97"/>
    </edge>
    <edge id=":65405104_0" function="internal">
        <lane id=":65405104_0_0" index="0" speed="10.22" length="4.34" shape="650.95,808.75 650.58,809.98 650.38,810.85 650.39,811.74 650.60,812.99"/>
    </edge>
    <edge id=":65405104_1" function="internal">
        <lane id=":65405104_1_0" index="0" speed="22.22" length="8.17" shape="645.51,805.73 646.38,807.98 646.79,809.59 647.05,811.24 647.47,813.63"/>
    </edge>
    <edge id=":65415943_0" function="internal">
        <lane id=":65415943_0_0" index="0" speed="13.72" length="9.36" shape="740.84,327.57 738.21,328.09 736.57,329.01 735.10,330.37 732.97,332.17"/>
    </edge>
    <edge id=":65415943_1" function="internal">
        <lane id=":65415943_1_0" index="0" speed="29.06" length="9.36" shape="740.84,327.57 731.56,328.55"/>
        <lane id=":65415943_1_1" index="1" speed="29.06" length="9.36" shape="740.53,324.38 731.23,325.37"/>
        <lane id=":65415943_1_2" index="2" speed="29.06" length="9.36" shape="740.22,321.20 730.91,322.19"/>
        <lane id=":65415943_1_3" index="3" speed="29.06" length="9.36" shape="739.91,318.01 730.58,319.00"/>
        <lane id=":65415943_1_4" index="4" speed="29.06" length="9.36" shape="739.60,314.83 730.26,315.82"/>
    </edge>
    <edge id=":68218050_0" function="internal">
        <lane id=":68218050_0_0" index="0" speed="22.22" length="0.38" shape="409.87,419.29 409.82,419.39 409.79,419.46 409.74,419.52 409.67,419.61"/>
    </edge>
    <edge id=":68218060_0" function="internal">
        <lane id=":68218060_0_0" index="0" speed="9.84" length="8.55" shape="417.18,407.08 415.07,408.22 414.01,409.56 413.34,411.31 412.42,413.70"/>
    </edge>
    <edge id=":68218060_1" function="internal">
        <lane id=":68218060_1_0" index="0" speed="29.06" length="8.85" shape="417.18,407.08 409.51,410.76"/>
        <lane id=":68218060_1_1" index="1" speed="29.06" length="8.85" shape="416.02,404.10 408.22,407.83"/>
        <lane id=":68218060_1_2" index="2" speed="29.06" length="8.85" shape="414.85,401.12 406.92,404.90"/>
        <lane id=":68218060_1_3" index="3" speed="29.06" length="8.85" shape="413.69,398.14 405.63,401.97"/>
        <lane id=":68218060_1_4" index="4" speed="29.06" length="8.85" shape="412.52,395.16 404.34,399.05"/>
        <lane id=":68218060_1_5" index="5" speed="29.06" length="8.85" shape="411.36,392.18 403.05,396.12"/>
    </edge>
    <edge id=":8891734165_0" function="internal">
        <lane id=":8891734165_0_0" index="0" speed="29.06" length="8.21" shape="460.85,1228.95 460.67,1231.35 460.92,1233.03 461.18,1234.70 460.99,1237.11"/>
        <lane id=":8891734165_0_1" index="1" speed="29.06" length="8.21" shape="457.70,1228.38 457.52,1230.78 457.77,1232.46 458.03,1234.13 457.84,1236.54"/>
        <lane id=":8891734165_0_2" index="2" speed="29.06" length="8.21" shape="454.55,1227.81 454.37,1230.21 454.62,1231.89 454.88,1233.56 454.70,1235.96"/>
    </edge>
    <edge id=":8891734166_0" function="internal">
        <lane id=":8891734166_0_0" index="0" speed="29.06" length="0.30" shape="545.91,728.67 545.91,728.98"/>
        <lane id=":8891734166_0_1" index="1" speed="29.06" length="0.30" shape="542.71,728.61 542.71,728.91"/>
        <lane id=":8891734166_0_2" index="2" speed="29.06" length="0.30" shape="539.51,728.55 539.51,728.84"/>
    </edge>
    <edge id=":8891734168_0" function="internal">
        <lane id=":8891734168_0_0" index="0" speed="29.06" length="8.21" shape="539.74,595.67 540.23,598.03 540.94,599.57 541.65,601.11 542.14,603.47"/>
        <lane id=":8891734168_0_1" index="1" speed="29.06" length="8.21" shape="536.55,595.99 537.04,598.35 537.75,599.89 538.46,601.43 538.95,603.79"/>
        <lane id=":8891734168_0_2" index="2" speed="29.06" length="8.21" shape="533.37,596.32 533.86,598.68 534.57,600.21 535.28,601.75 535.77,604.11"/>
    </edge>
    <edge id=":8891734169_0" function="internal">
        <lane id=":8891734169_0_0" index="0" speed="29.06" length="0.42" shape="435.86,316.91 435.82,316.83"/>
        <lane id=":8891734169_0_1" index="1" speed="29.06" length="0.42" shape="438.79,315.62 438.68,315.39"/>
        <lane id=":8891734169_0_2" index="2" speed="29.06" length="0.42" shape="441.72,314.32 441.53,313.94"/>
        <lane id=":8891734169_0_3" index="3" speed="29.06" length="0.42" shape="444.64,313.03 444.39,312.50"/>
        <lane id=":8891734169_0_4" index="4" speed="29.06" length="0.42" shape="447.57,311.74 447.24,311.05"/>
    </edge>
    <edge id=":8891734172_0" function="internal">
        <lane id=":8891734172_0_0" index="0" speed="29.06" length="8.15" shape="468.36,392.91 467.38,390.82 466.35,389.56 465.30,388.31 464.23,386.25"/>
        <lane id=":8891734172_0_1" index="1" speed="29.06" length="8.15" shape="471.39,391.88 470.40,389.75 469.36,388.46 468.30,387.19 467.22,385.09"/>
        <lane id=":8891734172_0_2" index="2" speed="29.06" length="8.15" shape="474.42,390.85 473.41,388.68 472.37,387.37 471.29,386.07 470.20,383.93"/>
        <lane id=":8891734172_0_3" index="3" speed="29.06" length="8.15" shape="477.45,389.82 476.43,387.61 475.38,386.28 474.29,384.95 473.18,382.78"/>
        <lane id=":8891734172_0_4" index="4" speed="29.06" length="8.15" shape="480.48,388.79 479.45,386.55 478.38,385.18 477.29,383.83 476.17,381.62"/>
    </edge>
    <edge id=":8891734186_0" function="internal">
        <lane id=":8891734186_0_0" index="0" speed="29.06" length="0.30" shape="474.88,422.03 474.78,421.74"/>
        <lane id=":8891734186_0_1" index="1" speed="29.06" length="0.30" shape="477.90,421.00 477.81,420.71"/>
        <lane id=":8891734186_0_2" index="2" speed="29.06" length="0.30" shape="480.93,419.97 480.84,419.68"/>
        <lane id=":8891734186_0_3" index="3" speed="29.06" length="0.30" shape="483.96,418.94 483.87,418.65"/>
        <lane id=":8891734186_0_4" index="4" speed="29.06" length="0.30" shape="486.99,417.91 486.90,417.62"/>
        <lane id=":8891734186_0_5" index="5" speed="29.06" length="0.30" shape="490.02,416.87 489.93,416.59"/>
    </edge>
    <edge id=":8891734187_0" function="internal">
        <lane id=":8891734187_0_0" index="0" speed="29.06" length="8.21" shape="466.61,314.44 467.75,316.56 468.88,317.83 470.00,319.10 471.14,321.22"/>
        <lane id=":8891734187_0_1" index="1" speed="29.06" length="8.21" shape="463.65,315.66 464.80,317.78 465.92,319.05 467.04,320.32 468.19,322.44"/>