<?xml version="1.0" encoding="UTF-8"?>

<!-- generated on 2025-04-03 22:47:56 by Eclipse SUMO netconvert Version 1.16.0
<configuration xmlns:xsi="http://www.w3.org/2001/XMLSchema-instance" xsi:noNamespaceSchemaLocation="http://sumo.dlr.de/xsd/netconvertConfiguration.xsd">

    <input>
        <osm-files value="g:\TRANSIT\src/../inputs//expressways.osm"/>
    </input>

    <output>
        <output-file value="g:\TRANSIT\src/../models/real_world_expressways/road.net.xml"/>
    </output>

    <projection>
        <proj.utm value="true"/>
    </projection>

    <processing>
        <plain.extend-edge-shape value="true"/>
        <numerical-ids value="true"/>
        <dismiss-vclasses value="true"/>
    </processing>

    <building_defaults>
        <default.junctions.keep-clear value="true"/>
    </building_defaults>

    <tls_building>
        <tls.guess value="true"/>
        <tls.guess-signals value="true"/>
    </tls_building>

    <edge_removal>
        <keep-edges.by-type value="highway.motorway,highway.trunk,highway.primary,highway.secondary,highway.tertiary,highway.residential,highway.motorway_link"/>
    </edge_removal>

    <junctions>
        <no-turnarounds value="true"/>
        <no-turnarounds.except-deadend value="true"/>
        <no-turnarounds.except-turnlane value="true"/>
        <junctions.join value="true"/>
        <junctions.join-dist value="30"/>
        <junctions.join-same value="true"/>
    </junctions>

</configuration>
-->

<net version="1.16" junctionCornerDetail="5" limitTurnSpeed="5.50" xmlns:xsi="http://www.w3.org/2001/XMLSchema-instance" xsi:noNamespaceSchemaLocation="http://sumo.dlr.de/xsd/net_file.xsd">

    <location netOffset="-596769.17,-4135474.71" convBoundary="0.00,0.00,1097.84,1283.72" origBoundary="-121.907153,37.360922,-121.894811,37.372472" projParameter="+proj=utm +zone=10 +ellps=WGS84 +datum=WGS84 +units=m +no_defs"/>

    <type id="highway.bridleway" priority="1" numLanes="1" speed="2.78" allow="pedestrian" oneway="1" width="2.00"/>
    <type id="highway.bus_guideway" priority="1" numLanes="1" speed="27.78" allow="bus" oneway="1"/>
    <type id="highway.cycleway" priority="1" numLanes="1" speed="5.56" allow="bicycle" oneway="0" width="1.00"/>
    <type id="highway.footway" priority="1" numLanes="1" speed="2.78" allow="pedestrian" oneway="1" width="2.00"/>
    <type id="highway.ford" priority="1" numLanes="1" speed="2.78" allow="army" oneway="0"/>
    <type id="highway.living_street" priority="2" numLanes="1" speed="2.78" disallow="tram rail_urban rail rail_electric rail_fast ship" oneway="0"/>
    <type id="highway.motorway" priority="14" numLanes="2" speed="39.44" allow="private emergency authority army vip passenger hov taxi bus coach delivery truck trailer motorcycle evehicle custom1 custom2" oneway="1"/>
    <type id="highway.motorway_link" priority="9" numLanes="1" speed="22.22" allow="private emergency authority army vip passenger hov taxi bus coach delivery truck trailer motorcycle evehicle custom1 custom2" oneway="1"/>
    <type id="highway.path" priority="1" numLanes="1" speed="5.56" allow="pedestrian bicycle" oneway="0" width="2.00"/>
    <type id="highway.pedestrian" priority="1" numLanes="1" speed="2.78" allow="pedestrian" oneway="1" width="2.00"/>
    <type id="highway.primary" priority="12" numLanes="2" speed="27.78" disallow="tram rail_urban rail rail_electric rail_fast ship" oneway="0"/>
    <type id="highway.primary_link" priority="7" numLanes="1" speed="22.22" disallow="tram rail_urban rail rail_electric rail_fast ship" oneway="0"/>
    <type id="highway.raceway" priority="15" numLanes="2" speed="83.33" allow="vip" oneway="0"/>
    <type id="highway.residential" priority="3" numLanes="1" speed="13.89" disallow="tram rail_urban rail rail_electric rail_fast ship" oneway="0"/>
    <type id="highway.secondary" priority="11" numLanes="1" speed="27.78" disallow="tram rail_urban rail rail_electric rail_fast ship" oneway="0"/>
    <type id="highway.secondary_link" priority="6" numLanes="1" speed="22.22" disallow="tram rail_urban rail rail_electric rail_fast ship" oneway="0"/>
    <type id="highway.service" priority="1" numLanes="1" speed="5.56" allow="pedestrian delivery bicycle" oneway="0"/>
    <type id="highway.stairs" priority="1" numLanes="1" speed="1.39" allow="pedestrian" oneway="1" width="2.00"/>
    <type id="highway.step" priority="1" numLanes="1" speed="1.39" allow="pedestrian" oneway="1" width="2.00"/>
    <type id="highway.steps" priority="1" numLanes="1" speed="1.39" allow="pedestrian" oneway="1" width="2.00"/>
    <type id="highway.tertiary" priority="10" numLanes="1" speed="22.22" disallow="tram rail_urban rail rail_electric rail_fast ship" oneway="0"/>
    <type id="highway.tertiary_link" priority="5" numLanes="1" speed="22.22" disallow="tram rail_urban rail rail_electric rail_fast ship" oneway="0"/>
    <type id="highway.track" priority="1" numLanes="1" speed="5.56" allow="pedestrian motorcycle moped bicycle" oneway="0"/>
    <type id="highway.trunk" priority="13" numLanes="2" speed="27.78" disallow="pedestrian bicycle tram rail_urban rail rail_electric rail_fast ship" oneway="0"/>
    <type id="highway.trunk_link" priority="8" numLanes="1" speed="22.22" disallow="pedestrian bicycle tram rail_urban rail rail_electric rail_fast ship" oneway="0"/>
    <type id="highway.unclassified" priority="4" numLanes="1" speed="13.89" disallow="tram rail_urban rail rail_electric rail_fast ship" oneway="0"/>
    <type id="highway.unsurfaced" priority="1" numLanes="1" speed="8.33" disallow="tram rail_urban rail rail_electric rail_fast ship" oneway="0"/>
    <type id="railway.highspeed" priority="21" numLanes="1" speed="69.44" allow="rail_fast" oneway="1"/>
    <type id="railway.light_rail" priority="19" numLanes="1" speed="27.78" allow="rail_urban" oneway="1"/>
    <type id="railway.preserved" priority="16" numLanes="1" speed="27.78" allow="rail" oneway="1"/>
    <type id="railway.rail" priority="20" numLanes="1" speed="44.44" allow="rail" oneway="1"/>
    <type id="railway.subway" priority="18" numLanes="1" speed="27.78" allow="rail_urban" oneway="1"/>
    <type id="railway.tram" priority="17" numLanes="1" speed="13.89" allow="tram" oneway="1"/>

    <edge id=":-30783_0" function="internal">
        <lane id=":-30783_0_0" index="0" speed="29.06" length="7.82" shape="765.19,293.94 767.44,293.49 768.90,292.81 770.37,292.13 772.62,291.68"/>
        <lane id=":-30783_0_1" index="1" speed="29.06" length="7.82" shape="765.47,297.13 767.72,296.68 769.19,296.00 770.65,295.31 772.90,294.86"/>
        <lane id=":-30783_0_2" index="2" speed="29.06" length="7.82" shape="765.76,300.32 768.01,299.87 769.47,299.18 770.94,298.50 773.18,298.05"/>
        <lane id=":-30783_0_3" index="3" speed="29.06" length="7.82" shape="766.04,303.51 768.29,303.05 769.76,302.37 771.22,301.69 773.47,301.24"/>
    </edge>
    <edge id=":1698569412_0" function="internal">
        <lane id=":1698569412_0_0" index="0" speed="29.06" length="8.12" shape="393.63,414.26 391.66,415.41 390.52,416.53 389.39,417.69 387.47,418.94"/>
        <lane id=":1698569412_0_1" index="1" speed="29.06" length="8.12" shape="392.34,411.33 390.33,412.50 389.15,413.64 387.99,414.82 386.03,416.09"/>
        <lane id=":1698569412_0_2" index="2" speed="29.06" length="8.12" shape="391.05,408.40 388.99,409.59 387.78,410.75 386.59,411.94 384.58,413.23"/>
        <lane id=":1698569412_0_3" index="3" speed="29.06" length="8.12" shape="389.76,405.48 387.65,406.68 386.42,407.85 385.20,409.06 383.14,410.37"/>
        <lane id=":1698569412_0_4" index="4" speed="29.06" length="8.12" shape="388.46,402.55 386.32,403.77 385.05,404.96 383.80,406.18 381.70,407.51"/>
    </edge>
    <edge id=":1698569475_0" function="internal">
        <lane id=":1698569475_0_0" index="0" speed="10.73" length="8.94" shape="637.73,867.84 638.35,865.44 638.68,863.77 638.81,862.07 638.86,859.58"/>
        <lane id=":1698569475_0_1" index="1" speed="10.73" length="8.94" shape="637.73,867.84 638.90,865.32 640.32,863.79 641.53,862.23 642.06,859.62"/>
    </edge>
    <edge id=":1698569630_0" function="internal">
        <lane id=":1698569630_0_0" index="0" speed="10.73" length="7.62" shape="459.25,1001.03 459.07,998.85 458.52,997.40 457.90,995.95 457.49,993.77"/>
        <lane id=":1698569630_0_1" index="1" speed="10.73" length="7.62" shape="459.25,1001.03 459.57,998.78 460.12,997.28 460.60,995.77 460.68,993.52"/>
    </edge>
    <edge id=":1700030862_0" function="internal">
        <lane id=":1700030862_0_0" index="0" speed="10.73" length="0.72" shape="728.25,335.67 728.08,335.80 727.95,335.87 727.82,335.91 727.61,335.96"/>
    </edge>
    <edge id=":1700030875_0" function="internal">
        <lane id=":1700030875_0_0" index="0" speed="10.73" length="0.76" shape="189.98,492.87 190.07,492.67 190.15,492.54 190.26,492.42 190.42,492.28"/>
    </edge>
    <edge id=":1708555151_0" function="internal">
        <lane id=":1708555151_0_0" index="0" speed="10.73" length="23.16" shape="403.69,812.57 402.39,805.57 400.71,799.48 398.84,794.42 396.99,790.51"/>
    </edge>
    <edge id=":1708555151_1" function="internal">
        <lane id=":1708555151_1_0" index="0" speed="10.73" length="23.15" shape="403.69,812.57 401.45,789.48"/>
        <lane id=":1708555151_1_1" index="1" speed="10.73" length="23.15" shape="406.86,812.13 404.63,789.14"/>
    </edge>
    <edge id=":245812719_0" function="internal">
        <lane id=":245812719_0_0" index="0" speed="10.46" length="3.81" shape="518.19,325.34 519.25,324.94 519.93,324.57 520.54,324.08 521.32,323.27"/>
    </edge>
    <edge id=":245812719_1" function="internal">
        <lane id=":245812719_1_0" index="0" speed="29.06" length="8.67" shape="519.28,328.35 521.82,327.39 523.55,326.72 525.31,326.13 527.92,325.43"/>
        <lane id=":245812719_1_1" index="1" speed="29.06" length="8.67" shape="520.36,331.36 522.84,330.43 524.53,329.77 526.24,329.19 528.79,328.51"/>
        <lane id=":245812719_1_2" index="2" speed="29.06" length="8.67" shape="521.45,334.37 523.86,333.46 525.50,332.82 527.17,332.26 529.65,331.59"/>
        <lane id=":245812719_1_3" index="3" speed="29.06" length="8.67" shape="522.53,337.38 524.88,336.50 526.48,335.87 528.10,335.32 530.52,334.67"/>
        <lane id=":245812719_1_4" index="4" speed="29.06" length="8.67" shape="523.62,340.39 525.90,339.53 527.46,338.92 529.04,338.39 531.39,337.76"/>
    </edge>
    <edge id=":245812727_0" function="internal">
        <lane id=":245812727_0_0" index="0" speed="9.25" length="5.74" shape="773.33,287.82 774.76,288.75 775.81,289.36 776.93,289.64 778.59,289.60"/>
    </edge>
    <edge id=":245812727_1" function="internal">
        <lane id=":245812727_1_0" index="0" speed="29.06" length="6.32" shape="772.82,291.66 774.64,291.76 775.86,292.23 777.09,292.70 778.91,292.79"/>
        <lane id=":245812727_1_1" index="1" speed="29.06" length="6.32" shape="773.10,294.84 774.93,294.95 776.16,295.42 777.40,295.89 779.22,295.97"/>
        <lane id=":245812727_1_2" index="2" speed="29.06" length="6.32" shape="773.38,298.03 775.22,298.13 776.46,298.61 777.70,299.07 779.54,299.15"/>
        <lane id=":245812727_1_3" index="3" speed="29.06" length="6.32" shape="773.67,301.22 775.52,301.32 776.76,301.79 778.01,302.26 779.86,302.34"/>
    </edge>
    <edge id=":245812729_0" function="internal">
        <lane id=":245812729_0_0" index="0" speed="19.89" length="10.80" shape="184.11,502.46 186.34,500.13 187.65,498.27 188.60,496.24 189.76,493.41"/>
    </edge>
    <edge id=":245812729_1" function="internal">
        <lane id=":245812729_1_0" index="0" speed="29.06" length="10.70" shape="184.11,502.46 186.72,500.35 188.81,499.32 190.98,498.38 193.83,496.56"/>
        <lane id=":245812729_1_1" index="1" speed="29.06" length="10.70" shape="186.34,504.76 188.87,502.73 190.90,501.75 193.01,500.86 195.78,499.10"/>
        <lane id=":245812729_1_2" index="2" speed="29.06" length="10.70" shape="188.57,507.05 191.01,505.10 192.99,504.17 195.04,503.33 197.72,501.64"/>
        <lane id=":245812729_1_3" index="3" speed="29.06" length="10.70" shape="190.79,509.35 193.16,507.48 195.08,506.60 197.07,505.81 199.66,504.19"/>
        <lane id=":245812729_1_4" index="4" speed="29.06" length="10.70" shape="193.02,511.65 195.31,509.85 197.17,509.03 199.10,508.28 201.60,506.73"/>
    </edge>
    <edge id=":25457976_0" function="internal">
        <lane id=":25457976_0_0" index="0" speed="9.45" length="6.64" shape="534.66,366.09 532.83,365.34 531.49,364.83 530.16,364.73 528.32,365.19"/>
    </edge>
    <edge id=":25457976_1" function="internal">
        <lane id=":25457976_1_0" index="0" speed="26.82" length="8.01" shape="534.79,362.12 532.59,362.40 531.00,362.07 529.42,361.78 527.25,362.18"/>
        <lane id=":25457976_1_1" index="1" speed="26.82" length="8.01" shape="533.90,359.05 531.64,359.34 530.01,359.02 528.40,358.75 526.18,359.16"/>
        <lane id=":25457976_1_2" index="2" speed="26.82" length="8.01" shape="533.00,355.97 530.69,356.28 529.03,355.98 527.37,355.72 525.10,356.15"/>
        <lane id=":25457976_1_3" index="3" speed="26.82" length="8.01" shape="532.11,352.90 529.74,353.22 528.04,352.93 526.35,352.69 524.03,353.13"/>
        <lane id=":25457976_1_4" index="4" speed="26.82" length="8.01" shape="531.21,349.83 528.80,350.17 527.06,349.89 525.33,349.65 522.96,350.12"/>
    </edge>
    <edge id=":26404564_0" function="internal">
        <lane id=":26404564_0_0" index="0" speed="11.02" length="5.92" shape="514.88,749.57 515.92,748.15 516.62,747.12 517.04,746.00 517.25,744.30"/>
    </edge>
    <edge id=":26404564_1" function="internal">
        <lane id=":26404564_1_0" index="0" speed="29.06" length="6.64" shape="518.57,750.81 518.91,748.89 519.50,747.64 520.10,746.39 520.45,744.48"/>
        <lane id=":26404564_1_1" index="1" speed="29.06" length="6.64" shape="521.77,750.97 522.11,749.06 522.70,747.81 523.30,746.57 523.64,744.66"/>
        <lane id=":26404564_1_2" index="2" speed="29.06" length="6.64" shape="524.96,751.13 525.30,749.22 525.89,747.98 526.49,746.74 526.84,744.83"/>
        <lane id=":26404564_1_3" index="3" speed="29.06" length="6.64" shape="528.16,751.29 528.50,749.39 529.09,748.15 529.69,746.91 530.03,745.01"/>
    </edge>
    <edge id=":26404567_0" function="internal">
        <lane id=":26404567_0_0" index="0" speed="29.06" length="7.47" shape="483.94,445.15 483.61,443.06 483.84,441.54 484.05,440.04 483.67,437.96"/>
        <lane id=":26404567_0_1" index="1" speed="29.06" length="7.47" shape="486.99,444.21 486.66,442.09 486.88,440.56 487.09,439.03 486.70,436.93"/>
        <lane id=":26404567_0_2" index="2" speed="29.06" length="7.47" shape="490.05,443.27 489.71,441.12 489.93,439.57 490.13,438.03 489.73,435.90"/>
        <lane id=":26404567_0_3" index="3" speed="29.06" length="7.47" shape="493.11,442.33 492.76,440.15 492.97,438.58 493.17,437.02 492.76,434.86"/>
        <lane id=":26404567_0_4" index="4" speed="29.06" length="7.47" shape="496.17,441.38 495.81,439.18 496.02,437.60 496.21,436.02 495.79,433.83"/>
    </edge>
    <edge id=":26404567_5" function="internal">
        <lane id=":26404567_5_0" index="0" speed="10.11" length="6.40" shape="480.00,445.16 480.62,443.36 481.03,442.06 481.09,440.77 480.64,438.99"/>
    </edge>
    <edge id=":26404574_0" function="internal">
        <lane id=":26404574_0_0" index="0" speed="29.06" length="7.91" shape="410.86,258.97 409.68,257.12 408.53,256.09 407.33,255.09 405.99,253.33"/>
        <lane id=":26404574_0_1" index="1" speed="29.06" length="7.91" shape="413.73,257.57 412.52,255.65 411.35,254.57 410.12,253.52 408.74,251.69"/>
        <lane id=":26404574_0_2" index="2" speed="29.06" length="7.91" shape="416.61,256.17 415.36,254.18 414.16,253.04 412.90,251.94 411.48,250.05"/>
        <lane id=":26404574_0_3" index="3" speed="29.06" length="7.91" shape="419.49,254.77 418.20,252.70 416.98,251.52 415.69,250.37 414.23,248.40"/>
    </edge>
    <edge id=":312118587_0" function="internal">
        <lane id=":312118587_0_0" index="0" speed="29.06" length="0.82" shape="519.53,676.54 519.52,676.01"/>
        <lane id=":312118587_0_1" index="1" speed="29.06" length="0.82" shape="522.73,676.55 522.72,675.88"/>
        <lane id=":312118587_0_2" index="2" speed="29.06" length="0.82" shape="525.93,676.57 525.92,675.75"/>
        <lane id=":312118587_0_3" index="3" speed="29.06" length="0.82" shape="529.13,676.59 529.11,675.61"/>
        <lane id=":312118587_0_4" index="4" speed="29.06" length="0.82" shape="532.33,676.61 532.31,675.48"/>
    </edge>
    <edge id=":312118634_0" function="internal">
        <lane id=":312118634_0_0" index="0" speed="29.06" length="0.28" shape="546.40,669.18 546.42,669.64"/>
        <lane id=":312118634_0_1" index="1" speed="29.06" length="0.28" shape="543.21,669.37 543.22,669.65"/>
        <lane id=":312118634_0_2" index="2" speed="29.06" length="0.28" shape="540.01,669.57 540.02,669.67"/>
    </edge>
    <edge id=":312118657_0" function="internal">
        <lane id=":312118657_0_0" index="0" speed="9.70" length="7.50" shape="423.89,293.28 422.73,291.50 421.52,290.62 419.98,290.09 417.86,289.36"/>
    </edge>
    <edge id=":312118657_1" function="internal">
        <lane id=":312118657_1_0" index="0" speed="29.06" length="7.53" shape="423.89,293.28 420.63,286.38"/>
        <lane id=":312118657_1_1" index="1" speed="29.06" length="7.53" shape="426.75,291.83 423.51,284.98"/>
        <lane id=":312118657_1_2" index="2" speed="29.06" length="7.53" shape="429.60,290.39 426.39,283.58"/>
        <lane id=":312118657_1_3" index="3" speed="29.06" length="7.53" shape="432.46,288.94 429.26,282.18"/>
        <lane id=":312118657_1_4" index="4" speed="29.06" length="7.53" shape="435.31,287.49 432.14,280.78"/>
    </edge>
    <edge id=":312118717_0" function="internal">
        <lane id=":312118717_0_0" index="0" speed="10.73" length="0.28" shape="462.27,284.12 462.29,284.40"/>
    </edge>
    <edge id=":312118874_0" function="internal">
        <lane id=":312118874_0_0" index="0" speed="10.73" length="9.57" shape="484.42,868.27 486.42,866.49 487.16,864.66 487.75,862.64 489.30,860.30"/>
    </edge>
    <edge id=":312119654_0" function="internal">
        <lane id=":312119654_0_0" index="0" speed="10.73" length="9.03" shape="416.65,788.43 416.17,791.07 415.78,792.88 415.61,794.71 415.79,797.36"/>
    </edge>
    <edge id=":312119654_1" function="internal">
        <lane id=":312119654_1_0" index="0" speed="10.73" length="9.41" shape="413.08,788.38 413.17,791.15 412.85,793.06 412.53,794.97 412.61,797.74"/>
    </edge>
    <edge id=":33102541_0" function="internal">
        <lane id=":33102541_0_0" index="0" speed="19.89" length="14.90" shape="545.22,760.32 545.42,765.03 546.11,768.54 547.10,771.57 548.19,774.81"/>
    </edge>
    <edge id=":33102541_1" function="internal">
        <lane id=":33102541_1_0" index="0" speed="29.06" length="14.86" shape="545.22,760.32 544.99,764.78 544.58,767.81 544.08,770.84 543.57,775.28"/>
        <lane id=":33102541_1_1" index="1" speed="29.06" length="14.86" shape="542.02,760.25 541.79,764.65 541.38,767.64 540.89,770.63 540.39,775.01"/>
        <lane id=":33102541_1_2" index="2" speed="29.06" length="14.86" shape="538.82,760.18 538.59,764.52 538.19,767.47 537.69,770.41 537.20,774.73"/>
    </edge>
    <edge id=":3742063551_0" function="internal">
        <lane id=":3742063551_0_0" index="0" speed="29.06" length="8.19" shape="511.89,445.31 512.78,447.55 513.74,448.96 514.69,450.36 515.56,452.62"/>
        <lane id=":3742063551_0_1" index="1" speed="29.06" length="8.19" shape="508.81,446.18 509.70,448.41 510.66,449.80 511.61,451.20 512.47,453.45"/>
        <lane id=":3742063551_0_2" index="2" speed="29.06" length="8.19" shape="505.73,447.05 506.61,449.27 507.57,450.65 508.52,452.04 509.37,454.27"/>
    </edge>
    <edge id=":3742063554_0" function="internal">
        <lane id=":3742063554_0_0" index="0" speed="9.38" length="5.25" shape="542.68,574.19 541.90,575.55 541.42,576.53 541.21,577.58 541.27,579.10"/>
    </edge>
    <edge id=":3742063554_1" function="internal">
        <lane id=":3742063554_1_0" index="0" speed="29.06" length="5.97" shape="538.77,573.45 538.79,575.22 538.46,576.43 538.12,577.65 538.09,579.42"/>
        <lane id=":3742063554_1_1" index="1" speed="29.06" length="5.97" shape="535.60,573.87 535.61,575.61 535.28,576.80 534.94,578.00 534.90,579.75"/>
        <lane id=":3742063554_1_2" index="2" speed="29.06" length="5.97" shape="532.43,574.28 532.44,576.00 532.10,577.17 531.76,578.35 531.72,580.07"/>
    </edge>
    <edge id=":4977823045_0" function="internal">
        <lane id=":4977823045_0_0" index="0" speed="10.73" length="0.31" shape="362.88,356.69 362.95,356.75 363.00,356.79 363.05,356.83 363.13,356.87"/>
    </edge>
    <edge id=":4977823048_0" function="internal">
        <lane id=":4977823048_0_0" index="0" speed="11.50" length="8.27" shape="368.04,144.93 369.69,146.62 371.17,147.36 372.91,147.72 375.33,148.27"/>
    </edge>
    <edge id=":4977823048_1" function="internal">
        <lane id=":4977823048_1_0" index="0" speed="29.06" length="8.28" shape="368.04,144.93 373.09,151.55"/>
        <lane id=":4977823048_1_1" index="1" speed="29.06" length="8.28" shape="365.53,146.92 370.56,153.51"/>
        <lane id=":4977823048_1_2" index="2" speed="29.06" length="8.28" shape="363.02,148.90 368.03,155.47"/>
        <lane id=":4977823048_1_3" index="3" speed="29.06" length="8.28" shape="360.51,150.89 365.50,157.42"/>
    </edge>
    <edge id=":4977823066_0" function="internal">
        <lane id=":4977823066_0_0" index="0" speed="10.73" length="8.21" shape="575.70,956.41 573.99,958.11 573.09,959.54 572.19,960.97 570.48,962.67"/>
    </edge>
    <edge id=":52140457_0" function="internal">
        <lane id=":52140457_0_0" index="0" speed="19.89" length="7.76" shape="343.98,166.12 343.26,163.92 342.80,162.39 342.14,160.96 340.83,159.10"/>
    </edge>
    <edge id=":52140457_1" function="internal">
        <lane id=":52140457_1_0" index="0" speed="29.06" length="8.18" shape="347.15,164.34 345.84,162.32 345.24,160.74 344.65,159.16 343.35,157.12"/>
        <lane id=":52140457_1_1" index="1" speed="29.06" length="8.18" shape="349.66,162.36 348.35,160.34 347.76,158.76 347.17,157.18 345.87,155.15"/>
        <lane id=":52140457_1_2" index="2" speed="29.06" length="8.18" shape="352.17,160.37 350.87,158.35 350.27,156.78 349.68,155.20 348.39,153.18"/>
        <lane id=":52140457_1_3" index="3" speed="29.06" length="8.18" shape="354.68,158.38 353.38,156.37 352.79,154.80 352.20,153.23 350.91,151.21"/>
    </edge>
    <edge id=":5261705797_0" function="internal">
        <lane id=":5261705797_0_0" index="0" speed="29.06" length="0.30" shape="956.99,271.82 957.31,271.79"/>
        <lane id=":5261705797_0_1" index="1" speed="29.06" length="0.30" shape="957.30,275.01 957.62,274.98"/>
        <lane id=":5261705797_0_2" index="2" speed="29.06" length="0.30" shape="957.62,278.19 957.92,278.16"/>
        <lane id=":5261705797_0_3" index="3" speed="29.06" length="0.30" shape="957.94,281.37 958.22,281.35"/>
        <lane id=":5261705797_0_4" index="4" speed="29.06" length="0.30" shape="958.25,284.56 958.52,284.53"/>
    </edge>
    <edge id=":65391242_0" function="internal">
        <lane id=":65391242_0_0" index="0" speed="19.89" length="15.06" shape="446.90,1153.11 447.25,1148.39 446.66,1144.77 445.90,1141.60 445.78,1138.21"/>
    </edge>
    <edge id=":65391242_1" function="internal">
        <lane id=":65391242_1_0" index="0" speed="29.06" length="15.25" shape="446.90,1153.11 450.01,1138.15"/>
        <lane id=":65391242_1_1" index="1" speed="29.06" length="15.25" shape="450.04,1153.73 453.15,1138.79"/>
        <lane id=":65391242_1_2" index="2" speed="29.06" length="15.25" shape="453.18,1154.35 456.28,1139.43"/>
        <lane id=":65391242_1_3" index="3" speed="29.06" length="15.25" shape="456.32,1154.97 459.42,1140.08"/>
    </edge>
    <edge id=":65394535_0" function="internal">
        <lane id=":65394535_0_0" index="0" speed="10.92" length="10.97" shape="504.77,409.63 506.03,412.47 507.57,414.81 509.39,416.63 511.50,417.94"/>
    </edge>
    <edge id=":65394535_1" function="internal">
        <lane id=":65394535_1_0" index="0" speed="29.06" length="11.43" shape="504.77,409.63 508.27,420.74"/>
        <lane id=":65394535_1_1" index="1" speed="29.06" length="11.43" shape="501.76,410.71 505.21,421.68"/>
        <lane id=":65394535_1_2" index="2" speed="29.06" length="11.43" shape="498.75,411.79 502.15,422.62"/>
        <lane id=":65394535_1_3" index="3" speed="29.06" length="11.43" shape="495.74,412.87 499.09,423.56"/>
    </edge>
    <edge id=":65401537_0" function="internal">
        <lane id=":65401537_0_0" index="0" speed="11.41" length="4.70" shape="415.60,360.94 416.98,361.12 417.95,361.19 418.90,361.06 420.21,360.65"/>
    </edge>
    <edge id=":65401537_1" function="internal">
        <lane id=":65401537_1_0" index="0" speed="29.06" length="5.02" shape="416.12,364.76 417.61,364.29 418.69,364.17 419.78,364.07 421.29,363.66"/>
        <lane id=":65401537_1_1" index="1" speed="29.06" length="5.02" shape="417.35,367.72 418.79,367.26 419.85,367.15 420.91,367.06 422.38,366.67"/>
        <lane id=":65401537_1_2" index="2" speed="29.06" length="5.02" shape="418.57,370.68 419.98,370.24 421.00,370.14 422.03,370.06 423.46,369.68"/>
        <lane id=":65401537_1_3" index="3" speed="29.06" length="5.02" shape="419.79,373.63 421.16,373.21 422.16,373.12 423.16,373.05 424.55,372.69"/>
        <lane id=":65401537_1_4" index="4" speed="29.06" length="5.02" shape="421.01,376.59 422.34,376.18 423.31,376.11 424.28,376.05 425.63,375.70"/>
    </edge>
    <edge id=":65401606_0" function="internal">
        <lane id=":65401606_0_0" index="0" speed="9.54" length="3.92" shape="462.12,292.58 462.00,293.73 462.00,294.54 462.19,295.32 462.61,296.40"/>
    </edge>
    <edge id=":65401606_1" function="internal">
        <lane id=":65401606_1_0" index="0" speed="29.06" length="9.97" shape="455.51,288.09 456.90,290.84 457.75,292.78 458.51,294.75 459.65,297.62"/>
        <lane id=":65401606_1_1" index="1" speed="29.06" length="9.97" shape="452.68,289.58 454.03,292.25 454.85,294.14 455.58,296.06 456.70,298.85"/>
        <lane id=":65401606_1_2" index="2" speed="29.06" length="9.97" shape="449.84,291.06 451.15,293.66 451.95,295.49 452.66,297.36 453.74,300.07"/>
        <lane id=":65401606_1_3" index="3" speed="29.06" length="9.97" shape="447.01,292.55 448.28,295.07 449.05,296.85 449.74,298.66 450.78,301.29"/>
    </edge>
    <edge id=":65405085_0" function="internal">
        <lane id=":65405085_0_0" index="0" speed="10.68" length="6.50" shape="479.78,1156.42 478.38,1157.77 477.41,1158.73 476.73,1159.86 476.25,1161.67"/>
    </edge>
    <edge id=":65405085_1" function="internal">
        <lane id=":65405085_1_0" index="0" speed="29.06" length="7.46" shape="476.34,1154.59 475.60,1156.60 474.68,1157.84 473.78,1159.08 473.11,1161.10"/>
        <lane id=":65405085_1_1" index="1" speed="29.06" length="7.46" shape="473.21,1153.91 472.47,1155.96 471.54,1157.21 470.63,1158.47 469.96,1160.53"/>
        <lane id=":65405085_1_2" index="2" speed="29.06" length="7.46" shape="470.09,1153.23 469.33,1155.31 468.40,1156.59 467.49,1157.87 466.81,1159.96"/>
    </edge>
    <edge id=":65405104_0" function="internal">
        <lane id=":65405104_0_0" index="0" speed="10.22" length="4.34" shape="650.95,808.75 650.57,809.98 650.38,810.85 650.39,811.73 650.60,812.99"/>
    </edge>
    <edge id=":65405104_1" function="internal">
        <lane id=":65405104_1_0" index="0" speed="10.73" length="8.18" shape="645.50,805.72 646.38,807.97 646.79,809.58 647.05,811.24 647.47,813.63"/>
    </edge>
    <edge id=":65415943_0" function="internal">
        <lane id=":65415943_0_0" index="0" speed="13.72" length="9.36" shape="740.84,327.57 738.21,328.09 736.57,329.02 735.10,330.37 732.96,332.17"/>
    </edge>
    <edge id=":65415943_1" function="internal">
        <lane id=":65415943_1_0" index="0" speed="29.06" length="9.36" shape="740.84,327.57 731.56,328.55"/>
        <lane id=":65415943_1_1" index="1" speed="29.06" length="9.36" shape="740.53,324.38 731.23,325.37"/>
        <lane id=":65415943_1_2" index="2" speed="29.06" length="9.36" shape="740.22,321.20 730.91,322.19"/>
        <lane id=":65415943_1_3" index="3" speed="29.06" length="9.36" shape="739.91,318.01 730.58,319.00"/>
        <lane id=":65415943_1_4" index="4" speed="29.06" length="9.36" shape="739.59,314.83 730.26,315.82"/>
    </edge>
    <edge id=":68218050_0" function="internal">
        <lane id=":68218050_0_0" index="0" speed="10.73" length="0.38" shape="409.87,419.29 409.82,419.39 409.79,419.46 409.74,419.53 409.67,419.61"/>
    </edge>
    <edge id=":68218060_0" function="internal">
        <lane id=":68218060_0_0" index="0" speed="9.84" length="8.55" shape="417.18,407.07 415.08,408.21 414.01,409.55 413.35,411.31 412.42,413.70"/>
    </edge>
    <edge id=":68218060_1" function="internal">
        <lane id=":68218060_1_0" index="0" speed="26.82" length="8.85" shape="417.18,407.07 409.51,410.75"/>
        <lane id=":68218060_1_1" index="1" speed="26.82" length="8.85" shape="416.02,404.09 408.22,407.82"/>
        <lane id=":68218060_1_2" index="2" speed="26.82" length="8.85" shape="414.86,401.11 406.93,404.89"/>
        <lane id=":68218060_1_3" index="3" speed="26.82" length="8.85" shape="413.69,398.13 405.63,401.97"/>
        <lane id=":68218060_1_4" index="4" speed="26.82" length="8.85" shape="412.53,395.15 404.34,399.04"/>
        <lane id=":68218060_1_5" index="5" speed="26.82" length="8.85" shape="411.36,392.17 403.05,396.11"/>
    </edge>