<?xml version="1.0" encoding="UTF-8"?>

<!-- generated on 2024-09-11 09:16:53.432244 by randomTrips.py v1_18_0+0000-03ecfdea036
<configuration>
    <net-file value="c:\Users\96551\OneDrive\TRANSIT\bin/../models/manhattan_RSL/roads.net.xml"/>
    <output-trip-file value="c:\Users\96551\OneDrive\TRANSIT\bin/../models/manhattan_RSL//bus.flow.xml"/>
    <trip-attributes value="departPos='random' departSpeed='max'"/>
    <vehicle-class value="bus"/>
    <jtrrouter value="True"/>
    <end value="1.0"/>
    <flows value="21"/>
</configuration>
-->

<routes xmlns:xsi="http://www.w3.org/2001/XMLSchema-instance" xsi:noNamespaceSchemaLocation="http://sumo.dlr.de/xsd/routes_file.xsd">
    <vType id="bus" vClass="bus"/>
    <flow id="bus_0" begin="0" end="1" period="21" from="D0E0" departPos='random' departSpeed='max' type="bus"/>
    <flow id="bus_1" begin="0" end="1" period="21" from="B2B3" departPos='random' departSpeed='max' type="bus"/>
    <flow id="bus_2" begin="0" end="1" period="21" from="D2D3" departPos='random' departSpeed='max' type="bus"/>
    <flow id="bus_3" begin="0" end="1" period="21" from="E1E2" departPos='random' departSpeed='max' type="bus"/>
    <flow id="bus_4" begin="0" end="1" period="21" from="C0D0" departPos='random' departSpeed='max' type="bus"/>
    <flow id="bus_5" begin="0" end="1" period="21" from="B1B0" departPos='random' departSpeed='max' type="bus"/>
    <flow id="bus_6" begin="0" end="1" period="21" from="A1A0" departPos='random' departSpeed='max' type="bus"/>
    <flow id="bus_7" begin="0" end="1" period="21" from="D0E0" departPos='random' departSpeed='max' type="bus"/>
    <flow id="bus_8" begin="0" end="1" period="21" from="B1B0" departPos='random' departSpeed='max' type="bus"/>
    <flow id="bus_9" begin="0" end="1" period="21" from="D4C4" departPos='random' departSpeed='max' type="bus"/>
    <flow id="bus_10" begin="0" end="1" period="21" from="D4C4" departPos='random' departSpeed='max' type="bus"/>
    <flow id="bus_11" begin="0" end="1" period="21" from="B3C3" departPos='random' departSpeed='max' type="bus"/>
    <flow id="bus_12" begin="0" end="1" period="21" from="E3E2" departPos='random' departSpeed='max' type="bus"/>
    <flow id="bus_13" begin="0" end="1" period="21" from="A2B2" departPos='random' departSpeed='max' type="bus"/>
    <flow id="bus_14" begin="0" end="1" period="21" from="E0D0" departPos='random' departSpeed='max' type="bus"/>
    <flow id="bus_15" begin="0" end="1" period="21" from="D4C4" departPos='random' departSpeed='max' type="bus"/>
    <flow id="bus_16" begin="0" end="1" period="21" from="C3B3" departPos='random' departSpeed='max' type="bus"/>
    <flow id="bus_17" begin="0" end="1" period="21" from="B4C4" departPos='random' departSpeed='max' type="bus"/>
    <flow id="bus_18" begin="0" end="1" period="21" from="D4E4" departPos='random' departSpeed='max' type="bus"/>
    <flow id="bus_19" begin="0" end="1" period="21" from="E0E1" departPos='random' departSpeed='max' type="bus"/>
    <flow id="bus_20" begin="0" end="1" period="21" from="D2C2" departPos='random' departSpeed='max' type="bus"/>
</routes>
