<?xml version="1.0" encoding="UTF-8"?>

<!-- generated on 2024-09-11 09:16:53 by Eclipse SUMO jtrrouter Version 1.18.0
<configuration xmlns:xsi="http://www.w3.org/2001/XMLSchema-instance" xsi:noNamespaceSchemaLocation="http://sumo.dlr.de/xsd/jtrrouterConfiguration.xsd">

    <input>
        <net-file value="c:\Users\96551\OneDrive\TRANSIT\bin/../models/manhattan_RSL/roads.net.xml"/>
        <route-files value="c:\Users\96551\OneDrive\TRANSIT\bin/../models/manhattan_RSL\bus.flow.xml,c:\Users\96551\OneDrive\TRANSIT\bin/../models/manhattan_RSL\passenger.flow.xml"/>
    </input>

    <output>
        <output-file value="c:\Users\96551\OneDrive\TRANSIT\bin/../models/manhattan_RSL/routes.routes.xml"/>
        <named-routes value="true"/>
    </output>

    <processing>
        <turn-defaults value="25,50,25"/>
        <accept-all-destinations value="true"/>
        <allow-loops value="true"/>
    </processing>

</configuration>
-->

<routes xmlns:xsi="http://www.w3.org/2001/XMLSchema-instance" xsi:noNamespaceSchemaLocation="http://sumo.dlr.de/xsd/routes_file.xsd">
    <vType id="bus" vClass="bus"/>
    <route id="r0" edges="D0E0 E0E1 E1D1 D1D2 D2D3 D3D4 D4E4 E4E3 E3D3 D3C3 C3B3 B3B4 B4A4 A4A3 A3A2 A2B2 B2C2 C2C1 C1D1 D1E1 E1E2 E2E3 E3D3 D3C3 C3B3 B3B2 B2C2 C2C3 C3C4 C4B4 B4A4 A4A3 A3A2 A2B2 B2B1 B1C1 C1C0 C0D0 D0E0 E0E1 E1E2 E2E3 E3D3 D3C3 C3C4 C4D4 D4E4 E4E3 E3E2 E2D2 D2C2 C2B2 B2A2 A2A1 A1B1 B1B2 B2B3 B3B4 B4A4 A4A3 A3B3 B3B2 B2B1 B1A1 A1A2 A2B2 B2C2 C2C3 C3D3 D3D2 D2E2 E2E1 E1D1 D1D2 D2D3 D3E3 E3E2 E2D2 D2D3 D3D4 D4E4 E4E3 E3D3 D3C3 C3B3 B3A3 A3A4 A4B4 B4C4 C4D4 D4D3 D3D2 D2E2 E2E1 E1D1 D1D2 D2C2 C2B2 B2B1 B1B0 B0A0 A0A1 A1B1 B1B2 B2B3 B3A3 A3A4 A4B4 B4B3 B3B2 B2A2 A2A3 A3A4 A4B4 B4B3 B3B2 B2A2 A2A1 A1A0 A0B0 B0C0 C0D0 D0E0 E0E1 E1D1 D1D0 D0E0 E0E1 E1D1 D1C1 C1B1 B1A1 A1A0 A0B0 B0C0 C0C1 C1C2 C2C3 C3D3 D3D4 D4C4 C4C3 C3D3 D3E3 E3E2 E2E1 E1E0 E0D0 D0C0 C0C1 C1C2 C2B2 B2A2 A2A3 A3B3 B3C3 C3C4 C4D4 D4D3 D3E3 E3E2 E2D2 D2D1 D1E1 E1E0 E0D0 D0D1 D1C1 C1C0 C0B0 B0A0 A0A1 A1B1 B1B0 B0A0 A0A1 A1A2 A2B2 B2C2 C2C3 C3D3 D3E3 E3E2 E2E1 E1D1 D1D2 D2E2 E2E1 E1D1 D1D0 D0C0 C0C1 C1B1 B1A1 A1A2 A2B2 B2B3 B3C3 C3C4 C4B4 B4B3 B3B2 B2A2 A2A1 A1A0 A0B0 B0B1 B1B2 B2C2 C2D2 D2D1 D1D0 D0C0 C0C1 C1B1 B1A1 A1A0 A0B0 B0B1 B1B2 B2C2 C2D2 D2D1 D1D0 D0C0 C0B0 B0A0 A0A1 A1B1 B1B2 B2C2 C2C1 C1C0 C0B0 B0B1 B1B2 B2A2 A2A1 A1A0 A0B0 B0C0 C0D0 D0E0 E0E1 E1E2 E2E3 E3E4 E4D4 D4C4 C4B4 B4A4 A4A3 A3B3 B3C3 C3D3 D3E3 E3E2 E2E1 E1E0 E0D0 D0D1 D1D2 D2C2 C2B2 B2B3 B3C3 C3D3 D3E3 E3E2 E2E1 E1E0 E0D0 D0D1 D1C1 C1B1 B1B2 B2B3 B3A3 A3A2 A2B2 B2B3 B3C3 C3D3 D3E3 E3E2 E2D2 D2C2 C2C1 C1C0 C0D0 D0E0 E0E1 E1D1 D1C1 C1B1 B1B0 B0C0 C0C1 C1C2 C2C3 C3B3 B3B2 B2C2 C2D2 D2D1 D1D0 D0E0 E0E1 E1E2 E2E3 E3D3 D3C3 C3C4 C4B4 B4B3 B3A3 A3A4 A4B4 B4B3 B3A3 A3A2 A2B2 B2C2 C2C3 C3D3 D3D4 D4C4 C4C3 C3C2 C2C1 C1C0 C0D0 D0E0 E0E1 E1D1 D1D2 D2E2 E2E1 E1D1 D1D0 D0C0 C0B0 B0A0 A0A1 A1A2 A2A3 A3B3 B3C3 C3D3 D3D4 D4E4 E4E3 E3D3 D3D4 D4C4 C4C3 C3C2 C2D2 D2D3 D3D4 D4C4 C4C3 C3B3 B3A3 A3A2 A2B2 B2C2 C2C3 C3D3 D3E3 E3E2 E2D2 D2D1 D1E1 E1E0 E0D0 D0D1 D1C1 C1C0 C0D0 D0D1 D1C1 C1B1 B1B2 B2A2 A2A1 A1A0 A0B0 B0B1 B1B2 B2B3 B3C3 C3D3 D3E3 E3E4 E4D4 D4C4 C4B4 B4B3 B3C3 C3C2 C2C1 C1B1 B1B2 B2B3 B3A3 A3A4 A4B4 B4B3 B3A3 A3A4 A4B4 B4C4 C4D4 D4D3 D3D2 D2D1 D1E1 E1E2 E2D2 D2C2 C2C1 C1C0 C0D0 D0E0 E0E1 E1E2 E2D2 D2C2 C2C1 C1B1 B1B2 B2B3 B3B4 B4C4 C4C3 C3B3 B3B2 B2B1 B1B0 B0A0 A0A1 A1A2 A2B2 B2C2 C2D2 D2D1 D1C1 C1C0 C0D0 D0D1 D1D2 D2C2 C2B2 B2B3 B3B4 B4A4 A4A3 A3B3 B3B2 B2B1 B1B0 B0C0 C0D0 D0D1 D1C1 C1C2 C2D2 D2E2 E2E3 E3D3 D3D2 D2D1 D1E1 E1E0 E0D0 D0C0 C0B0 B0A0 A0A1 A1B1 B1B2 B2C2 C2D2 D2D1 D1E1 E1E0 E0D0 D0C0 C0B0 B0B1 B1B2 B2B3 B3B4 B4A4 A4A3 A3A2 A2A1 A1A0 A0B0 B0B1 B1A1 A1A0 A0B0 B0B1 B1C1 C1D1 D1E1 E1E0 E0D0 D0C0 C0C1 C1C2 C2C3 C3B3 B3A3 A3A4 A4B4 B4C4 C4C3 C3B3 B3A3 A3A2 A2A1 A1A0 A0B0 B0C0 C0C1 C1D1 D1E1 E1E2 E2E3 E3D3 D3C3 C3C2 C2B2 B2A2 A2A1 A1B1 B1B2 B2C2 C2D2 D2E2 E2E1 E1D1 D1C1 C1B1 B1A1 A1A2 A2A3 A3B3 B3B4 B4C4 C4D4 D4E4 E4E3 E3E2 E2D2 D2C2 C2B2 B2A2 A2A3 A3B3 B3B4 B4A4 A4A3 A3A2 A2B2 B2C2 C2C1 C1C0 C0D0 D0D1 D1C1 C1B1 B1A1 A1A2 A2A3 A3B3 B3B2 B2A2 A2A1 A1B1 B1B2 B2B3 B3A3 A3A2 A2B2 B2B3 B3B4 B4C4 C4D4 D4D3 D3E3 E3E2 E2E1 E1D1 D1D2 D2E2 E2E3 E3E4 E4D4 D4D3 D3D2 D2C2 C2B2 B2A2 A2A3 A3B3 B3B4 B4A4 A4A3 A3A2 A2B2 B2B1 B1A1 A1A0 A0B0 B0C0 C0C1 C1C2 C2B2 B2A2 A2A3 A3A4 A4B4 B4B3 B3C3 C3D3 D3D2 D2E2 E2E3"/>
    <vehicle id="bus_0.0" type="bus" depart="0.00" departPos="random" departSpeed="max" route="r0"/>
    <route id="r1" edges="B2B3 B3A3 A3A2 A2A1 A1B1 B1C1 C1C0 C0D0 D0D1 D1D2 D2D3 D3D4 D4C4 C4B4 B4A4 A4A3 A3B3 B3C3 C3C4 C4B4 B4A4 A4A3 A3A2 A2A1 A1A0 A0B0 B0C0 C0C1 C1B1 B1B2 B2A2 A2A1 A1B1 B1C1 C1C2 C2C3 C3D3 D3D4 D4E4 E4E3 E3D3 D3D4 D4C4 C4B4 B4B3 B3B2 B2A2 A2A3 A3A4 A4B4 B4B3 B3B2 B2B1 B1A1 A1A0 A0B0 B0B1 B1B2 B2B3 B3B4 B4C4 C4C3 C3C2 C2C1 C1C0 C0D0 D0D1 D1D2 D2D3 D3C3 C3C4 C4D4 D4E4 E4E3 E3E2 E2E1 E1D1 D1D2 D2C2 C2B2 B2B1 B1A1 A1A2 A2B2 B2B3 B3B4 B4C4 C4D4 D4D3 D3D2 D2E2 E2E1 E1E0 E0D0 D0D1 D1E1 E1E2 E2D2 D2C2 C2B2 B2B3 B3C3 C3D3 D3E3 E3E2 E2E1 E1D1 D1D0 D0E0 E0E1 E1E2 E2D2 D2C2 C2B2 B2B3 B3C3 C3C2 C2C1 C1D1 D1D2 D2D3 D3E3 E3E4 E4D4 D4D3 D3D2 D2D1 D1D0 D0C0 C0C1 C1B1 B1B2 B2A2 A2A3 A3B3 B3C3 C3D3 D3D4 D4E4 E4E3 E3E2 E2D2 D2D1 D1D0 D0E0 E0E1 E1E2 E2D2 D2C2 C2C1 C1B1 B1B2 B2C2 C2D2 D2E2 E2E1 E1E0 E0D0 D0D1 D1E1 E1E0 E0D0 D0C0 C0B0 B0A0 A0A1 A1A2 A2B2 B2B1 B1B0 B0A0 A0A1 A1B1 B1C1 C1C2 C2C3 C3D3 D3E3 E3E2 E2E1 E1E0 E0D0 D0C0 C0C1 C1D1 D1D2 D2D3 D3D4 D4C4 C4B4 B4A4 A4A3 A3B3 B3C3 C3D3 D3D4 D4E4 E4E3 E3D3 D3C3 C3C2 C2C1 C1C0 C0D0 D0D1 D1E1 E1E0 E0D0 D0C0 C0C1 C1B1 B1A1 A1A2 A2A3 A3A4 A4B4 B4B3 B3A3 A3A2 A2A1 A1B1 B1C1 C1D1 D1E1 E1E0 E0D0 D0C0 C0C1 C1C2 C2C3 C3B3 B3A3 A3A4 A4B4 B4C4 C4D4 D4D3 D3D2 D2D1 D1D0 D0C0 C0B0 B0B1 B1A1 A1A2 A2A3 A3B3 B3C3 C3C4 C4B4 B4B3 B3A3 A3A4 A4B4 B4B3 B3B2 B2A2 A2A3 A3A4 A4B4 B4C4 C4D4 D4E4 E4E3 E3D3 D3C3 C3C4 C4B4 B4A4 A4A3 A3A2 A2A1 A1A0 A0B0 B0B1 B1B2 B2B3 B3A3 A3A4 A4B4 B4B3 B3C3 C3D3 D3E3 E3E2 E2E1 E1D1 D1D0 D0E0 E0E1 E1E2 E2E3 E3E4 E4D4 D4D3 D3C3 C3C4 C4D4 D4E4 E4E3 E3E2 E2E1 E1E0 E0D0 D0C0 C0B0 B0B1 B1B2 B2A2 A2A1 A1A0 A0B0 B0B1 B1C1 C1C2 C2B2 B2A2 A2A3 A3B3 B3C3 C3C2 C2D2 D2D1 D1D0 D0E0 E0E1 E1E2 E2D2 D2C2 C2B2 B2A2 A2A1 A1A0 A0B0 B0B1 B1C1 C1C0 C0D0 D0E0 E0E1 E1D1 D1D0 D0E0 E0E1 E1E2 E2D2 D2D3 D3E3 E3E4 E4D4 D4C4 C4C3 C3C2 C2D2 D2D1 D1C1 C1C0 C0D0 D0D1 D1D2 D2E2 E2E3 E3E4 E4D4 D4D3 D3C3 C3C2 C2B2 B2B1 B1B0 B0A0 A0A1 A1B1 B1B2 B2B3 B3B4 B4A4 A4A3 A3A2 A2A1 A1A0 A0B0 B0C0 C0D0 D0D1 D1C1 C1B1 B1B0 B0C0 C0C1 C1D1 D1E1 E1E0 E0D0 D0D1 D1D2 D2E2 E2E1 E1D1 D1C1 C1B1 B1B0 B0A0 A0A1 A1B1 B1B2 B2B3 B3B4 B4C4 C4C3 C3C2 C2D2 D2E2 E2E3 E3D3 D3C3 C3B3 B3A3 A3A4 A4B4 B4C4 C4D4 D4E4 E4E3 E3E2 E2E1 E1E0 E0D0 D0D1 D1D2 D2C2 C2B2 B2A2 A2A1 A1A0 A0B0 B0B1 B1A1 A1A2 A2A3 A3A4 A4B4 B4B3 B3A3 A3A4 A4B4 B4B3 B3B2 B2A2 A2A1 A1B1 B1C1 C1D1 D1D2 D2D3 D3D4 D4E4 E4E3 E3E2 E2D2 D2C2 C2B2 B2B1 B1B0 B0C0 C0C1 C1B1 B1B0 B0A0 A0A1 A1B1 B1B2 B2A2 A2A1 A1B1 B1B2 B2B3 B3C3 C3D3 D3D4 D4C4 C4C3 C3B3 B3B4 B4C4 C4D4 D4E4 E4E3 E3E2 E2D2 D2D3 D3D4 D4E4 E4E3 E3D3 D3D2 D2E2 E2E3 E3D3 D3D4 D4C4 C4C3 C3D3 D3D2 D2C2 C2C1 C1D1 D1E1 E1E0 E0D0 D0C0 C0B0 B0B1 B1B2 B2A2 A2A1 A1A0 A0B0 B0C0 C0C1 C1C2 C2C3 C3C4 C4B4 B4A4 A4A3 A3A2 A2A1 A1A0 A0B0 B0B1 B1C1 C1D1 D1E1 E1E0 E0D0 D0C0 C0C1 C1C2 C2C3 C3C4 C4D4 D4E4 E4E3 E3D3 D3C3 C3B3 B3A3 A3A2 A2A1 A1B1 B1B2 B2A2 A2A1 A1B1 B1B2 B2C2 C2C1 C1C0 C0D0 D0D1 D1C1 C1B1 B1B2 B2A2 A2A3 A3B3 B3C3 C3C4 C4D4 D4E4 E4E3 E3E2 E2D2 D2D3 D3E3 E3E2 E2D2 D2C2 C2B2 B2B3 B3B4 B4C4 C4C3 C3C2 C2C1 C1C0 C0B0 B0B1 B1A1 A1A2 A2B2 B2B3 B3A3 A3A2 A2B2 B2B1 B1B0 B0A0 A0A1 A1A2 A2A3 A3B3 B3C3 C3C2 C2D2 D2D1 D1D0 D0E0 E0E1 E1E2 E2E3 E3D3 D3C3 C3C4 C4D4 D4D3 D3D2 D2E2 E2E3 E3D3 D3C3 C3C2 C2D2 D2D3 D3E3 E3E4 E4D4 D4D3 D3D2 D2C2 C2C3"/>
    <vehicle id="bus_1.0" type="bus" depart="0.00" departPos="random" departSpeed="max" route="r1"/>
    <route id="r2" edges="D4C4 C4B4 B4A4 A4A3 A3B3 B3C3 C3C2 C2C1 C1B1 B1B2 B2B3 B3B4 B4A4 A4A3 A3A2 A2B2 B2C2 C2C3 C3C4 C4B4 B4A4 A4A3 A3A2 A2B2 B2C2 C2C3 C3D3 D3D2 D2E2 E2E3 E3E4 E4D4 D4C4 C4C3 C3C2 C2C1 C1C0 C0D0 D0E0 E0E1 E1E2 E2E3 E3D3 D3D4 D4E4 E4E3 E3D3 D3C3 C3B3 B3B2 B2B1 B1A1 A1A2 A2B2 B2C2 C2D2 D2E2 E2E3 E3E4 E4D4 D4C4 C4B4 B4B3 B3B2 B2C2 C2C3 C3B3 B3A3 A3A2 A2B2 B2C2 C2C3 C3C4 C4D4 D4D3 D3D2 D2E2 E2E3 E3D3 D3D4 D4E4 E4E3 E3D3 D3C3 C3B3 B3A3 A3A2 A2B2 B2C2 C2D2 D2D1 D1D0 D0C0 C0C1 C1C2 C2C3 C3D3 D3D2 D2C2 C2B2 B2A2 A2A1 A1B1 B1B0 B0A0 A0A1 A1A2 A2A3 A3B3 B3B2 B2A2 A2A3 A3A4 A4B4 B4B3 B3A3 A3A2 A2B2 B2C2 C2D2 D2D1 D1E1 E1E0 E0D0 D0D1 D1D2 D2E2 E2E3 E3E4 E4D4 D4D3 D3C3 C3C4 C4D4 D4D3 D3E3 E3E2 E2D2 D2C2 C2B2 B2B3 B3C3 C3C2 C2B2 B2B1 B1B0 B0C0 C0D0 D0E0 E0E1 E1D1 D1D2 D2E2 E2E3 E3D3 D3D2 D2C2 C2B2 B2B3 B3B4 B4A4 A4A3 A3B3 B3C3 C3D3 D3D2 D2E2 E2E3 E3E4 E4D4 D4D3 D3C3 C3B3 B3B2 B2B1 B1B0 B0A0 A0A1 A1B1 B1C1 C1C2 C2C3 C3C4 C4D4 D4E4 E4E3 E3E2 E2D2 D2C2 C2B2 B2B3 B3C3 C3C4 C4D4 D4E4 E4E3 E3E2 E2D2 D2C2 C2B2 B2A2 A2A1 A1B1 B1C1 C1C0 C0B0 B0A0 A0A1 A1B1 B1B0 B0A0 A0A1 A1B1 B1B2 B2B3 B3A3 A3A2 A2A1 A1A0 A0B0 B0C0 C0D0 D0E0 E0E1 E1E2 E2E3 E3D3 D3C3 C3B3 B3A3 A3A4 A4B4 B4B3 B3A3 A3A4 A4B4 B4B3 B3B2 B2B1 B1B0 B0C0 C0C1 C1C2 C2C3 C3D3 D3E3 E3E2 E2D2 D2D1 D1E1 E1E2 E2E3 E3D3 D3D4 D4E4 E4E3 E3D3 D3C3 C3C2 C2B2 B2A2 A2A3 A3A4 A4B4 B4C4 C4C3 C3B3 B3B4 B4C4 C4C3 C3D3 D3D4 D4C4 C4B4 B4A4 A4A3 A3B3 B3C3 C3C4 C4D4 D4D3 D3E3 E3E4 E4D4 D4D3 D3D2 D2D1 D1D0 D0C0 C0B0 B0B1 B1B2 B2A2 A2A1 A1A0 A0B0 B0B1 B1A1 A1A2 A2A3 A3A4 A4B4 B4B3 B3C3 C3C2 C2C1 C1C0 C0D0 D0E0 E0E1 E1E2 E2D2 D2C2 C2B2 B2A2 A2A3 A3B3 B3B4 B4C4 C4D4 D4E4 E4E3 E3E2 E2D2 D2C2 C2B2 B2B3 B3B4 B4A4 A4A3 A3A2 A2A1 A1A0 A0B0 B0C0 C0D0 D0E0 E0E1 E1D1 D1D2 D2D3 D3C3 C3C2 C2B2 B2B1 B1B0 B0A0 A0A1 A1A2 A2A3 A3B3 B3B4 B4A4 A4A3 A3A2 A2A1 A1A0 A0B0 B0B1 B1B2 B2A2 A2A1 A1A0 A0B0 B0B1 B1B2 B2A2 A2A3 A3B3 B3C3 C3D3 D3D4 D4C4 C4C3 C3B3 B3A3 A3A2 A2B2 B2C2 C2C1 C1D1 D1E1 E1E2 E2D2 D2C2 C2B2 B2A2 A2A3 A3B3 B3B2 B2B1 B1B0 B0C0 C0C1 C1C2 C2B2 B2A2 A2A1 A1B1 B1C1 C1C0 C0D0 D0D1 D1C1 C1B1 B1A1 A1A2 A2B2 B2B3 B3C3 C3C2 C2C1 C1D1 D1D2 D2D3 D3E3 E3E2 E2D2 D2C2 C2C1 C1C0 C0D0 D0E0 E0E1 E1D1 D1D0 D0E0 E0E1 E1D1 D1C1 C1B1 B1B2 B2B3 B3A3 A3A2 A2A1 A1B1 B1C1 C1C0 C0B0 B0B1 B1C1 C1C2 C2C3 C3C4 C4B4 B4A4 A4A3 A3A2 A2A1 A1B1 B1B0 B0A0 A0A1 A1A2 A2B2 B2B3 B3B4 B4C4 C4D4 D4D3 D3D2 D2C2 C2B2 B2A2 A2A3 A3A4 A4B4 B4C4 C4C3 C3B3 B3B4 B4C4 C4D4 D4E4 E4E3 E3E2 E2E1 E1D1 D1D0 D0C0 C0B0 B0B1 B1C1 C1C0 C0D0 D0E0 E0E1 E1E2 E2D2 D2D1 D1D0 D0E0 E0E1 E1E2 E2D2 D2D3 D3D4 D4C4 C4B4 B4A4 A4A3 A3B3 B3B4 B4A4 A4A3 A3B3 B3C3 C3C2 C2C1 C1C0 C0D0 D0D1 D1D2 D2D3 D3D4 D4E4 E4E3 E3E2 E2E1 E1D1 D1C1 C1C2 C2C3 C3B3 B3B2 B2A2 A2A1 A1B1 B1B2 B2B3 B3B4 B4C4 C4C3 C3B3 B3A3 A3A4 A4B4 B4C4 C4C3 C3C2 C2C1 C1C0 C0B0 B0B1 B1B2 B2B3 B3C3 C3D3 D3D4 D4E4 E4E3 E3D3 D3C3 C3B3 B3B4 B4C4 C4C3 C3C2 C2D2 D2D3 D3C3 C3B3 B3B4 B4A4 A4A3 A3B3 B3C3 C3D3 D3E3 E3E2 E2D2 D2C2 C2C1 C1B1 B1B2 B2B3 B3C3 C3C2 C2C1 C1D1 D1E1 E1E0 E0D0 D0D1 D1D2 D2E2 E2E1 E1E0 E0D0 D0D1 D1D2 D2D3 D3D4 D4E4 E4E3 E3E2 E2E1 E1E0 E0D0 D0C0 C0B0 B0A0 A0A1 A1B1 B1B2 B2B3 B3C3 C3C2 C2C1 C1C0 C0D0 D0D1 D1D2 D2D3 D3D4 D4C4 C4B4 B4B3 B3B2 B2B1 B1A1 A1A0 A0B0 B0B1 B1B2 B2B3 B3B4 B4A4 A4A3 A3A2 A2B2"/>
    <vehicle id="bus_10.0" type="bus" depart="0.00" departPos="random" departSpeed="max" route="r2"/>
    <route id="r3" edges="B3C3 C3D3 D3E3 E3E2 E2E1 E1E0 E0D0 D0C0 C0B0 B0B1 B1C1 C1D1 D1D0 D0C0 C0B0 B0B1 B1A1 A1A0 A0B0 B0B1 B1A1 A1A2 A2B2 B2B3 B3B4 B4A4 A4A3 A3B3 B3B2 B2B1 B1A1 A1A2 A2A3 A3A4 A4B4 B4C4 C4D4 D4E4 E4E3 E3D3 D3C3 C3B3 B3B4 B4A4 A4A3 A3B3 B3C3 C3D3 D3D2 D2D1 D1C1 C1B1 B1B0 B0A0 A0A1 A1B1 B1B0 B0C0 C0C1 C1B1 B1A1 A1A2 A2B2 B2C2 C2D2 D2E2 E2E1 E1D1 D1C1 C1B1 B1B2 B2C2 C2C3 C3C4 C4D4 D4D3 D3D2 D2E2 E2E3 E3E4 E4D4 D4C4 C4B4 B4B3 B3C3 C3C4 C4B4 B4B3 B3C3 C3C2 C2C1 C1C0 C0B0 B0A0 A0A1 A1B1 B1C1 C1C2 C2C3 C3B3 B3A3 A3A4 A4B4 B4C4 C4D4 D4E4 E4E3 E3E2 E2D2 D2D3 D3D4 D4E4 E4E3 E3D3 D3C3 C3C4 C4D4 D4D3 D3D2 D2E2 E2E3 E3E4 E4D4 D4D3 D3D2 D2C2 C2C3 C3B3 B3B4 B4A4 A4A3 A3A2 A2A1 A1A0 A0B0 B0B1 B1B2 B2B3 B3A3 A3A4 A4B4 B4B3 B3B2 B2B1 B1C1 C1D1 D1E1 E1E2 E2D2 D2D3 D3D4 D4E4 E4E3 E3D3 D3D2 D2D1 D1E1 E1E2 E2E3 E3E4 E4D4 D4C4 C4B4 B4B3 B3C3 C3D3 D3E3 E3E2 E2D2 D2D1 D1D0 D0C0 C0B0 B0B1 B1B2 B2C2 C2D2 D2D1 D1E1 E1E2 E2E3 E3D3 D3D2 D2C2 C2C1 C1B1 B1A1 A1A2 A2B2 B2C2 C2C1 C1C0 C0B0 B0A0 A0A1 A1A2 A2B2 B2C2 C2C1 C1C0 C0D0 D0D1 D1D2 D2E2 E2E3 E3E4 E4D4 D4D3 D3D2 D2D1 D1D0 D0C0 C0C1 C1C2 C2C3 C3B3 B3A3 A3A2 A2A1 A1B1 B1B0 B0C0 C0D0 D0D1 D1D2 D2D3 D3D4 D4E4 E4E3 E3E2 E2E1 E1D1 D1D2 D2D3 D3D4 D4C4 C4C3 C3D3 D3E3 E3E2 E2D2 D2D1 D1D0 D0C0 C0C1 C1C2 C2C3 C3C4 C4D4 D4E4 E4E3 E3D3 D3D2 D2D1 D1E1 E1E2 E2E3 E3E4 E4D4 D4C4 C4C3 C3C2 C2B2 B2B1 B1A1 A1A2 A2A3 A3B3 B3C3 C3C4 C4B4 B4A4 A4A3 A3B3 B3B4 B4A4 A4A3 A3B3 B3B2 B2B1 B1B0 B0C0 C0C1 C1C2 C2B2 B2A2 A2A3 A3A4 A4B4 B4B3 B3C3 C3C4 C4B4 B4A4 A4A3 A3B3 B3C3 C3D3 D3E3 E3E4 E4D4 D4D3 D3E3 E3E4 E4D4 D4C4 C4B4 B4A4 A4A3 A3A2 A2A1 A1A0 A0B0 B0B1 B1A1 A1A2 A2B2 B2B3 B3B4 B4C4 C4D4 D4D3 D3E3 E3E2 E2D2 D2C2 C2B2 B2B3 B3B4 B4A4 A4A3 A3A2 A2A1 A1A0 A0B0 B0B1 B1C1 C1D1 D1D0 D0E0 E0E1 E1D1 D1C1 C1C2 C2B2 B2B3 B3B4 B4C4 C4C3 C3C2 C2C1 C1B1 B1A1 A1A0 A0B0 B0B1 B1B2 B2C2 C2C3 C3B3 B3B2 B2B1 B1A1 A1A2 A2B2 B2C2 C2C1 C1C0 C0B0 B0A0 A0A1 A1B1 B1B2 B2B3 B3B4 B4C4 C4C3 C3C2 C2C1 C1B1 B1A1 A1A0 A0B0 B0C0 C0C1 C1C2 C2B2 B2B1 B1A1 A1A0 A0B0 B0B1 B1B2 B2A2 A2A1 A1A0 A0B0 B0C0 C0C1 C1B1 B1A1 A1A2 A2B2 B2C2 C2C1 C1C0 C0B0 B0B1 B1A1 A1A2 A2A3 A3B3 B3B2 B2B1 B1A1 A1A0 A0B0 B0C0 C0C1 C1B1 B1B0 B0A0 A0A1 A1A2 A2A3 A3A4 A4B4 B4C4 C4C3 C3D3 D3D4 D4C4 C4B4 B4A4 A4A3 A3B3 B3C3 C3D3 D3D2 D2D1 D1C1 C1C2 C2C3 C3C4 C4D4 D4D3 D3D2 D2C2 C2C3 C3B3 B3B2 B2B1 B1C1 C1C0 C0B0 B0A0 A0A1 A1A2 A2B2 B2B3 B3A3 A3A2 A2B2 B2C2 C2D2 D2E2 E2E3 E3D3 D3C3 C3C4 C4B4 B4B3 B3B2 B2A2 A2A1 A1A0 A0B0 B0C0 C0D0 D0D1 D1D2 D2E2 E2E1 E1E0 E0D0 D0C0 C0C1 C1D1 D1D2 D2E2 E2E3 E3E4 E4D4 D4C4 C4B4 B4A4 A4A3 A3A2 A2A1 A1B1 B1C1 C1C2 C2B2 B2A2 A2A3 A3B3 B3B4 B4C4 C4D4 D4D3 D3E3 E3E2 E2E1 E1E0 E0D0 D0D1 D1D2 D2E2 E2E3 E3E4 E4D4 D4D3 D3D2 D2D1 D1D0 D0C0 C0C1 C1B1 B1B2 B2B3 B3C3 C3C4 C4D4 D4E4 E4E3 E3D3 D3C3 C3B3 B3B4 B4C4 C4D4 D4E4 E4E3 E3D3 D3C3 C3C4 C4D4 D4E4 E4E3 E3E2 E2E1 E1D1 D1C1 C1C0 C0D0 D0D1 D1C1 C1B1 B1B0 B0C0 C0C1 C1C2 C2C3 C3C4 C4B4 B4A4 A4A3 A3A2 A2B2 B2B3 B3C3 C3D3 D3D2 D2E2 E2E1 E1E0 E0D0 D0C0 C0C1 C1B1 B1A1 A1A2 A2A3 A3A4 A4B4 B4B3 B3B2 B2C2 C2D2 D2E2 E2E3 E3D3 D3C3 C3B3 B3B2 B2A2 A2A1 A1A0 A0B0 B0C0 C0D0 D0E0 E0E1 E1D1 D1C1 C1B1 B1A1 A1A0 A0B0 B0B1 B1C1 C1C2 C2C3 C3B3 B3A3 A3A4 A4B4 B4B3 B3B2 B2B1 B1B0 B0C0 C0C1 C1C2 C2D2 D2E2 E2E3 E3E4 E4D4 D4D3 D3D2 D2D1"/>
    <vehicle id="bus_11.0" type="bus" depart="0.00" departPos="random" departSpeed="max" route="r3"/>
    <route id="r4" edges="E3E2 E2E1 E1D1 D1D2 D2C2 C2C1 C1B1 B1A1 A1A2 A2B2 B2B1 B1B0 B0A0 A0A1 A1B1 B1B0 B0A0 A0A1 A1A2 A2A3 A3A4 A4B4 B4B3 B3B2 B2A2 A2A3 A3A4 A4B4 B4B3 B3C3 C3C2 C2B2 B2A2 A2A1 A1B1 B1B0 B0C0 C0C1 C1C2 C2C3 C3B3 B3A3 A3A2 A2B2 B2B3 B3A3 A3A4 A4B4 B4B3 B3B2 B2B1 B1B0 B0A0 A0A1 A1B1 B1B0 B0A0 A0A1 A1B1 B1C1 C1D1 D1E1 E1E2 E2D2 D2D3 D3D4 D4C4 C4C3 C3C2 C2C1 C1C0 C0B0 B0A0 A0A1 A1B1 B1C1 C1C0 C0B0 B0B1 B1B2 B2A2 A2A3 A3B3 B3B4 B4A4 A4A3 A3B3 B3C3 C3D3 D3D2 D2D1 D1D0 D0C0 C0C1 C1C2 C2B2 B2A2 A2A1 A1B1 B1B2 B2B3 B3B4 B4C4 C4C3 C3B3 B3A3 A3A4 A4B4 B4B3 B3B2 B2B1 B1C1 C1C2 C2C3 C3C4 C4B4 B4B3 B3B2 B2A2 A2A3 A3A4 A4B4 B4C4 C4C3 C3B3 B3B2 B2B1 B1C1 C1C0 C0D0 D0D1 D1D2 D2D3 D3D4 D4C4 C4B4 B4B3 B3B2 B2B1 B1A1 A1A2 A2B2 B2B1 B1C1 C1D1 D1E1 E1E0 E0D0 D0D1 D1C1 C1B1 B1A1 A1A2 A2B2 B2C2 C2D2 D2D1 D1D0 D0C0 C0C1 C1D1 D1E1 E1E2 E2D2 D2C2 C2C3 C3B3 B3B2 B2A2 A2A3 A3A4 A4B4 B4B3 B3B2 B2B1 B1A1 A1A2 A2A3 A3A4 A4B4 B4C4 C4D4 D4E4 E4E3 E3D3 D3C3 C3C2 C2C1 C1C0 C0B0 B0B1 B1B2 B2A2 A2A1 A1B1 B1B0 B0C0 C0D0 D0E0 E0E1 E1D1 D1C1 C1B1 B1B2 B2C2 C2C1 C1C0 C0D0 D0D1 D1C1 C1B1 B1B0 B0A0 A0A1 A1B1 B1C1 C1D1 D1D0 D0C0 C0B0 B0A0 A0A1 A1A2 A2A3 A3A4 A4B4 B4C4 C4C3 C3D3 D3E3 E3E4 E4D4 D4D3 D3D2 D2D1 D1E1 E1E0 E0D0 D0D1 D1D2 D2C2 C2B2 B2B3 B3B4 B4C4 C4D4 D4D3 D3E3 E3E2 E2D2 D2C2 C2B2 B2B3 B3A3 A3A4 A4B4 B4B3 B3B2 B2B1 B1A1 A1A2 A2B2 B2B1 B1B0 B0C0 C0D0 D0D1 D1D2 D2D3 D3C3 C3C4 C4D4 D4E4 E4E3 E3E2 E2E1 E1E0 E0D0 D0C0 C0B0 B0A0 A0A1 A1A2 A2A3 A3B3 B3C3 C3C4 C4D4 D4E4 E4E3 E3E2 E2D2 D2C2 C2B2 B2A2 A2A1 A1A0 A0B0 B0B1 B1B2 B2C2 C2C1 C1C0 C0B0 B0A0 A0A1 A1B1 B1B0 B0A0 A0A1 A1B1 B1B0 B0C0 C0C1 C1D1 D1E1 E1E2 E2E3 E3D3 D3C3 C3C2 C2D2 D2D3 D3E3 E3E2 E2D2 D2C2 C2B2 B2B1 B1A1 A1A2 A2B2 B2C2 C2C1 C1C0 C0D0 D0D1 D1D2 D2D3 D3D4 D4C4 C4C3 C3B3 B3B4 B4C4 C4D4 D4E4 E4E3 E3E2 E2E1 E1E0 E0D0 D0C0 C0C1 C1C2 C2C3 C3B3 B3A3 A3A4 A4B4 B4B3 B3B2 B2A2 A2A1 A1A0 A0B0 B0C0 C0D0 D0D1 D1E1 E1E2 E2E3 E3D3 D3D2 D2C2 C2C3 C3C4 C4D4 D4E4 E4E3 E3E2 E2E1 E1E0 E0D0 D0D1 D1D2 D2D3 D3D4 D4C4 C4B4 B4A4 A4A3 A3A2 A2B2 B2C2 C2D2 D2E2 E2E3 E3E4 E4D4 D4C4 C4B4 B4B3 B3B2 B2A2 A2A3 A3B3 B3B4 B4A4 A4A3 A3A2 A2B2 B2B1 B1C1 C1C0 C0B0 B0A0 A0A1 A1B1 B1C1 C1D1 D1E1 E1E2 E2E3 E3D3 D3C3 C3C2 C2C1 C1C0 C0B0 B0A0 A0A1 A1A2 A2B2 B2C2 C2D2 D2E2 E2E3 E3D3 D3D4 D4E4 E4E3 E3D3 D3D4 D4E4 E4E3 E3D3 D3C3 C3C4 C4B4 B4A4 A4A3 A3B3 B3C3 C3D3 D3D4 D4E4 E4E3 E3E2 E2D2 D2D3 D3C3 C3B3 B3B4 B4C4 C4C3 C3B3 B3A3 A3A2 A2B2 B2B3 B3A3 A3A4 A4B4 B4C4 C4C3 C3B3 B3A3 A3A4 A4B4 B4C4 C4D4 D4D3 D3C3 C3B3 B3A3 A3A2 A2A1 A1A0 A0B0 B0B1 B1B2 B2B3 B3B4 B4A4 A4A3 A3A2 A2B2 B2B3 B3B4 B4A4 A4A3 A3A2 A2B2 B2C2 C2C3 C3C4 C4B4 B4A4 A4A3 A3B3 B3C3 C3D3 D3D4 D4E4 E4E3 E3E2 E2E1 E1E0 E0D0 D0C0 C0B0 B0B1 B1C1 C1D1 D1D0 D0C0 C0C1 C1C2 C2C3 C3D3 D3D2 D2D1 D1C1 C1C2 C2B2 B2B1 B1A1 A1A0 A0B0 B0C0 C0D0 D0E0 E0E1 E1E2 E2D2 D2C2 C2B2 B2B1 B1C1 C1C2 C2B2 B2B1 B1A1 A1A0 A0B0 B0C0 C0D0 D0D1 D1D2 D2D3 D3E3 E3E2 E2D2 D2D3 D3D4 D4E4 E4E3 E3E2 E2E1 E1E0 E0D0 D0C0 C0B0 B0B1 B1B2 B2C2 C2D2 D2D1 D1E1 E1E0 E0D0 D0C0 C0C1 C1B1 B1B2 B2C2 C2D2 D2E2 E2E3 E3D3 D3C3 C3B3 B3B4 B4C4 C4D4 D4E4 E4E3 E3E2 E2D2 D2D3 D3C3 C3B3 B3A3 A3A4 A4B4 B4C4 C4C3 C3D3 D3E3 E3E4 E4D4 D4C4 C4B4 B4A4 A4A3 A3B3 B3C3 C3C4 C4D4 D4E4 E4E3 E3E2 E2D2 D2C2 C2C1 C1D1 D1E1 E1E0 E0D0 D0C0 C0C1"/>
    <vehicle id="bus_12.0" type="bus" depart="0.00" departPos="random" departSpeed="max" route="r4"/>
    <route id="r5" edges="A2B2 B2C2 C2C3 C3C4 C4B4 B4B3 B3B2 B2B1 B1A1 A1A2 A2A3 A3B3 B3B4 B4C4 C4C3 C3D3 D3D2 D2D1 D1E1 E1E0 E0D0 D0D1 D1C1 C1C0 C0D0 D0D1 D1C1 C1C2 C2D2 D2E2 E2E3 E3E4 E4D4 D4D3 D3D2 D2D1 D1E1 E1E0 E0D0 D0D1 D1D2 D2D3 D3E3 E3E2 E2D2 D2C2 C2B2 B2A2 A2A3 A3B3 B3C3 C3D3 D3D2 D2C2 C2B2 B2B1 B1B0 B0A0 A0A1 A1A2 A2A3 A3A4 A4B4 B4B3 B3B2 B2B1 B1A1 A1A2 A2A3 A3A4 A4B4 B4B3 B3B2 B2B1 B1B0 B0C0 C0D0 D0E0 E0E1 E1E2 E2D2 D2D3 D3D4 D4E4 E4E3 E3E2 E2D2 D2D1 D1D0 D0C0 C0B0 B0B1 B1C1 C1C0 C0B0 B0B1 B1C1 C1D1 D1E1 E1E0 E0D0 D0C0 C0C1 C1C2 C2C3 C3C4 C4D4 D4E4 E4E3 E3E2 E2E1 E1D1 D1C1 C1C0 C0B0 B0B1 B1C1 C1C2 C2B2 B2B1 B1A1 A1A0 A0B0 B0B1 B1A1 A1A0 A0B0 B0B1 B1C1 C1C0 C0B0 B0A0 A0A1 A1A2 A2A3 A3B3 B3C3 C3D3 D3E3 E3E4 E4D4 D4C4 C4C3 C3B3 B3B2 B2A2 A2A3 A3A4 A4B4 B4C4 C4C3 C3C2 C2D2 D2E2 E2E3 E3D3 D3D4 D4E4 E4E3 E3D3 D3C3 C3B3 B3B2 B2B1 B1B0 B0A0 A0A1 A1A2 A2B2 B2B1 B1C1 C1C2 C2B2 B2B3 B3B4 B4A4 A4A3 A3B3 B3B4 B4A4 A4A3 A3A2 A2B2 B2C2 C2C3 C3C4 C4B4 B4B3 B3A3 A3A2 A2B2 B2B3 B3C3 C3C4 C4B4 B4B3 B3B2 B2C2 C2C1 C1C0 C0B0 B0A0 A0A1 A1B1 B1C1 C1C0 C0B0 B0B1 B1A1 A1A2 A2B2 B2C2 C2C1 C1B1 B1A1 A1A2 A2B2 B2C2 C2D2 D2E2 E2E1 E1D1 D1C1 C1C0 C0D0 D0D1 D1C1 C1C2 C2C3 C3B3 B3B4 B4A4 A4A3 A3B3 B3C3 C3C2 C2C1 C1C0 C0D0 D0D1 D1C1 C1B1 B1B0 B0C0 C0D0 D0D1 D1D2 D2E2 E2E1 E1E0 E0D0 D0C0 C0C1 C1D1 D1E1 E1E2 E2D2 D2C2 C2B2 B2A2 A2A3 A3B3 B3C3 C3D3 D3D2 D2C2 C2C1 C1D1 D1E1 E1E0 E0D0 D0D1 D1D2 D2D3 D3C3 C3C4 C4D4 D4E4 E4E3 E3E2 E2D2 D2D3 D3C3 C3C2 C2D2 D2D3 D3D4 D4C4 C4C3 C3C2 C2C1 C1C0 C0B0 B0B1 B1C1 C1D1 D1D0 D0C0 C0B0 B0B1 B1A1 A1A0 A0B0 B0C0 C0C1 C1C2 C2D2 D2D1 D1D0 D0E0 E0E1 E1D1 D1D2 D2D3 D3D4 D4E4 E4E3 E3D3 D3D4 D4C4 C4C3 C3D3 D3E3 E3E4 E4D4 D4D3 D3D2 D2D1 D1E1 E1E2 E2E3 E3E4 E4D4 D4D3 D3C3 C3C2 C2C1 C1C0 C0D0 D0E0 E0E1 E1D1 D1D0 D0E0 E0E1 E1E2 E2D2 D2C2 C2B2 B2B1 B1C1 C1C0 C0D0 D0E0 E0E1 E1E2 E2D2 D2C2 C2C3 C3D3 D3E3 E3E2 E2E1 E1E0 E0D0 D0C0 C0B0 B0B1 B1B2 B2C2 C2C3 C3B3 B3A3 A3A2 A2B2 B2C2 C2D2 D2E2 E2E1 E1E0 E0D0 D0D1 D1D2 D2E2 E2E3 E3D3 D3D4 D4E4 E4E3 E3E2 E2E1 E1E0 E0D0 D0C0 C0C1 C1C2 C2C3 C3B3 B3A3 A3A4 A4B4 B4C4 C4D4 D4D3 D3D2 D2E2 E2E1 E1D1 D1D2 D2D3 D3D4 D4C4 C4B4 B4B3 B3A3 A3A2 A2A1 A1B1 B1B2 B2A2 A2A3 A3B3 B3C3 C3C4 C4B4 B4A4 A4A3 A3A2 A2B2 B2C2 C2C3 C3D3 D3E3 E3E2 E2D2 D2D1 D1D0 D0E0 E0E1 E1D1 D1D0 D0E0 E0E1 E1D1 D1D2 D2C2 C2B2 B2A2 A2A1 A1B1 B1C1 C1C0 C0B0 B0B1 B1B2 B2B3 B3B4 B4A4 A4A3 A3A2 A2A1 A1A0 A0B0 B0C0 C0D0 D0D1 D1C1 C1C0 C0D0 D0D1 D1D2 D2D3 D3D4 D4E4 E4E3 E3E2 E2D2 D2C2 C2B2 B2B1 B1A1 A1A2 A2A3 A3B3 B3C3 C3C2 C2C1 C1C0 C0D0 D0D1 D1D2 D2D3 D3C3 C3C2 C2B2 B2B1 B1C1 C1D1 D1D2 D2D3 D3E3 E3E2 E2D2 D2D3 D3D4 D4C4 C4B4 B4A4 A4A3 A3A2 A2B2 B2C2 C2C1 C1D1 D1D0 D0C0 C0C1 C1B1 B1B0 B0C0 C0D0 D0D1 D1E1 E1E2 E2E3 E3D3 D3D4 D4E4 E4E3 E3D3 D3D2 D2D1 D1E1 E1E2 E2D2 D2C2 C2B2 B2B3 B3B4 B4A4 A4A3 A3A2 A2B2 B2B3 B3B4 B4C4 C4D4 D4E4 E4E3 E3E2 E2D2 D2D1 D1E1 E1E0 E0D0 D0D1 D1D2 D2D3 D3C3 C3C2 C2D2 D2E2 E2E1 E1D1 D1C1 C1C0 C0B0 B0B1 B1C1 C1D1 D1D2 D2D3 D3D4 D4E4 E4E3 E3E2 E2E1 E1E0 E0D0 D0D1 D1E1 E1E0 E0D0 D0C0 C0B0 B0B1 B1C1 C1C2 C2B2 B2B1 B1B0 B0A0 A0A1 A1A2 A2A3 A3A4 A4B4 B4C4 C4C3 C3D3 D3E3 E3E4 E4D4 D4C4 C4C3 C3C2 C2C1 C1C0 C0B0 B0B1 B1C1 C1C0 C0B0 B0A0 A0A1 A1A2 A2B2 B2C2 C2D2 D2D3 D3C3 C3C2 C2B2 B2A2 A2A1 A1A0 A0B0 B0C0 C0D0 D0E0 E0E1 E1D1"/>
    <vehicle id="bus_13.0" type="bus" depart="0.00" departPos="random" departSpeed="max" route="r5"/>
    <route id="r6" edges="E0D0 D0C0 C0C1 C1D1 D1D2 D2C2 C2B2 B2B1 B1C1 C1C0 C0D0 D0D1 D1E1 E1E2 E2E3 E3D3 D3C3 C3C2 C2C1 C1D1 D1E1 E1E0 E0D0 D0D1 D1C1 C1C2 C2D2 D2E2 E2E3 E3D3 D3C3 C3C2 C2D2 D2E2 E2E1 E1E0 E0D0 D0C0 C0B0 B0A0 A0A1 A1A2 A2B2 B2B3 B3B4 B4A4 A4A3 A3A2 A2B2 B2B3 B3B4 B4C4 C4C3 C3B3 B3B2 B2B1 B1B0 B0C0 C0D0 D0E0 E0E1 E1E2 E2E3 E3D3 D3D4 D4C4 C4B4 B4B3 B3A3 A3A4 A4B4 B4B3 B3C3 C3D3 D3D4 D4C4 C4B4 B4B3 B3B2 B2A2 A2A3 A3A4 A4B4 B4B3 B3A3 A3A2 A2B2 B2B1 B1B0 B0C0 C0D0 D0E0 E0E1 E1E2 E2D2 D2D1 D1D0 D0E0 E0E1 E1D1 D1D2 D2E2 E2E3 E3D3 D3C3 C3B3 B3B2 B2B1 B1C1 C1C0 C0D0 D0D1 D1D2 D2C2 C2C3 C3C4 C4B4 B4A4 A4A3 A3A2 A2A1 A1B1 B1B0 B0C0 C0D0 D0E0 E0E1 E1D1 D1C1 C1C0 C0B0 B0A0 A0A1 A1A2 A2B2 B2B3 B3A3 A3A2 A2A1 A1B1 B1B0 B0A0 A0A1 A1B1 B1B0 B0A0 A0A1 A1B1 B1B0 B0C0 C0C1 C1D1 D1D0 D0C0 C0B0 B0B1 B1B2 B2B3 B3C3 C3C2 C2D2 D2D1 D1D0 D0E0 E0E1 E1D1 D1C1 C1B1 B1B2 B2B3 B3A3 A3A4 A4B4 B4C4 C4D4 D4D3 D3D2 D2E2 E2E1 E1E0 E0D0 D0C0 C0C1 C1B1 B1B0 B0A0 A0A1 A1B1 B1C1 C1D1 D1D2 D2C2 C2C3 C3D3 D3D2 D2D1 D1D0 D0C0 C0B0 B0B1 B1A1 A1A0 A0B0 B0C0 C0D0 D0D1 D1D2 D2C2 C2C3 C3C4 C4D4 D4D3 D3E3 E3E4 E4D4 D4D3 D3D2 D2E2 E2E1 E1E0 E0D0 D0C0 C0C1 C1C2 C2D2 D2D1 D1D0 D0E0 E0E1 E1E2 E2E3 E3D3 D3C3 C3C4 C4D4 D4E4 E4E3 E3E2 E2D2 D2D1 D1D0 D0E0 E0E1 E1D1 D1C1 C1B1 B1B0 B0A0 A0A1 A1B1 B1B0 B0C0 C0D0 D0E0 E0E1 E1D1 D1C1 C1B1 B1B2 B2B3 B3A3 A3A4 A4B4 B4B3 B3C3 C3C2 C2C1 C1C0 C0D0 D0E0 E0E1 E1D1 D1D2 D2D3 D3D4 D4E4 E4E3 E3E2 E2D2 D2D3 D3D4 D4C4 C4C3 C3D3 D3E3 E3E4 E4D4 D4D3 D3D2 D2C2 C2B2 B2B1 B1B0 B0A0 A0A1 A1A2 A2A3 A3B3 B3B4 B4A4 A4A3 A3A2 A2B2 B2B3 B3C3 C3D3 D3E3 E3E4 E4D4 D4D3 D3E3 E3E4 E4D4 D4C4 C4B4 B4B3 B3A3 A3A4 A4B4 B4B3 B3B2 B2C2 C2C3 C3C4 C4D4 D4D3 D3D2 D2D1 D1D0 D0C0 C0C1 C1B1 B1B2 B2B3 B3B4 B4C4 C4D4 D4E4 E4E3 E3E2 E2D2 D2D3 D3C3 C3C4 C4B4 B4A4 A4A3 A3B3 B3C3 C3C2 C2C1 C1C0 C0D0 D0D1 D1C1 C1B1 B1B0 B0C0 C0C1 C1D1 D1E1 E1E2 E2D2 D2D1 D1D0 D0E0 E0E1 E1E2 E2D2 D2D3 D3E3 E3E4 E4D4 D4C4 C4B4 B4A4 A4A3 A3B3 B3B2 B2C2 C2D2 D2E2 E2E1 E1E0 E0D0 D0C0 C0C1 C1D1 D1E1 E1E0 E0D0 D0C0 C0B0 B0B1 B1B2 B2B3 B3A3 A3A4 A4B4 B4B3 B3B2 B2A2 A2A3 A3A4 A4B4 B4B3 B3B2 B2A2 A2A1 A1B1 B1C1 C1C2 C2C3 C3B3 B3B2 B2A2 A2A3 A3A4 A4B4 B4C4 C4C3 C3C2 C2C1 C1C0 C0B0 B0A0 A0A1 A1A2 A2B2 B2C2 C2D2 D2E2 E2E1 E1E0 E0D0 D0D1 D1D2 D2E2 E2E1 E1E0 E0D0 D0C0 C0B0 B0A0 A0A1 A1B1 B1C1 C1D1 D1E1 E1E0 E0D0 D0D1 D1C1 C1C0 C0D0 D0D1 D1D2 D2C2 C2B2 B2B1 B1C1 C1D1 D1D0 D0E0 E0E1 E1D1 D1C1 C1B1 B1A1 A1A0 A0B0 B0C0 C0D0 D0E0 E0E1 E1E2 E2D2 D2D3 D3C3 C3B3 B3B2 B2B1 B1A1 A1A0 A0B0 B0C0 C0C1 C1C2 C2C3 C3B3 B3B2 B2C2 C2D2 D2E2 E2E3 E3E4 E4D4 D4D3 D3E3 E3E4 E4D4 D4D3 D3D2 D2D1 D1D0 D0C0 C0B0 B0B1 B1B2 B2A2 A2A1 A1A0 A0B0 B0C0 C0C1 C1C2 C2D2 D2E2 E2E1 E1D1 D1D0 D0C0 C0C1 C1D1 D1E1 E1E0 E0D0 D0C0 C0B0 B0A0 A0A1 A1A2 A2A3 A3B3 B3B2 B2B1 B1B0 B0A0 A0A1 A1B1 B1B2 B2A2 A2A1 A1A0 A0B0 B0C0 C0C1 C1C2 C2D2 D2D1 D1D0 D0C0 C0B0 B0B1 B1A1 A1A2 A2B2 B2C2 C2C3 C3C4 C4D4 D4D3 D3D2 D2D1 D1D0 D0E0 E0E1 E1E2 E2E3 E3D3 D3D4 D4E4 E4E3 E3D3 D3D2 D2D1 D1D0 D0E0 E0E1 E1E2 E2D2 D2D1 D1E1 E1E2 E2E3 E3E4 E4D4 D4D3 D3E3 E3E2 E2D2 D2D3 D3E3 E3E4 E4D4 D4D3 D3D2 D2C2 C2B2 B2B1 B1B0 B0A0 A0A1 A1A2 A2A3 A3B3 B3B4 B4C4 C4C3 C3D3 D3E3 E3E4 E4D4 D4D3 D3D2 D2E2 E2E1 E1D1 D1C1 C1B1 B1B2 B2A2 A2A1 A1B1 B1B2 B2A2 A2A1 A1A0 A0B0 B0C0 C0C1 C1C2"/>
    <vehicle id="bus_14.0" type="bus" depart="0.00" departPos="random" departSpeed="max" route="r6"/>
    <route id="r7" edges="D4C4 C4B4 B4B3 B3A3 A3A2 A2B2 B2B3 B3C3 C3D3 D3D2 D2D1 D1D0 D0C0 C0B0 B0A0 A0A1 A1A2 A2B2 B2B3 B3B4 B4C4 C4C3 C3B3 B3A3 A3A2 A2B2 B2B1 B1C1 C1D1 D1E1 E1E2 E2E3 E3D3 D3C3 C3B3 B3B2 B2B1 B1B0 B0A0 A0A1 A1A2 A2B2 B2B1 B1B0 B0A0 A0A1 A1B1 B1B2 B2C2 C2D2 D2E2 E2E1 E1D1 D1D0 D0E0 E0E1 E1E2 E2D2 D2C2 C2C1 C1D1 D1D2 D2E2 E2E1 E1D1 D1C1 C1B1 B1A1 A1A2 A2B2 B2C2 C2D2 D2D3 D3E3 E3E4 E4D4 D4C4 C4C3 C3B3 B3A3 A3A4 A4B4 B4C4 C4D4 D4D3 D3D2 D2E2 E2E3 E3D3 D3C3 C3C4 C4B4 B4A4 A4A3 A3A2 A2A1 A1B1 B1B2 B2C2 C2D2 D2E2 E2E1 E1D1 D1D2 D2C2 C2B2 B2B1 B1B0 B0C0 C0D0 D0E0 E0E1 E1E2 E2E3 E3D3 D3C3 C3C2 C2C1 C1C0 C0D0 D0D1 D1C1 C1C2 C2D2 D2D1 D1D0 D0E0 E0E1 E1D1 D1C1 C1C2 C2C3 C3D3 D3E3 E3E4 E4D4 D4D3 D3C3 C3B3 B3A3 A3A4 A4B4 B4B3 B3A3 A3A2 A2A1 A1B1 B1B2 B2C2 C2C1 C1C0 C0B0 B0B1 B1B2 B2A2 A2A1 A1B1 B1B0 B0A0 A0A1 A1A2 A2B2 B2B1 B1C1 C1C2 C2C3 C3B3 B3B4 B4C4 C4D4 D4D3 D3D2 D2D1 D1D0 D0E0 E0E1 E1D1 D1C1 C1B1 B1A1 A1A0 A0B0 B0C0 C0D0 D0E0 E0E1 E1E2 E2E3 E3E4 E4D4 D4C4 C4B4 B4A4 A4A3 A3A2 A2B2 B2C2 C2C1 C1D1 D1D2 D2C2 C2B2 B2B1 B1B0 B0C0 C0C1 C1D1 D1D0 D0C0 C0C1 C1B1 B1B0 B0C0 C0C1 C1C2 C2B2 B2A2 A2A3 A3A4 A4B4 B4C4 C4D4 D4E4 E4E3 E3D3 D3D2 D2D1 D1D0 D0C0 C0B0 B0B1 B1A1 A1A2 A2B2 B2B3 B3A3 A3A2 A2A1 A1B1 B1C1 C1D1 D1D0 D0E0 E0E1 E1E2 E2D2 D2C2 C2C3 C3C4 C4D4 D4D3 D3C3 C3B3 B3A3 A3A4 A4B4 B4B3 B3A3 A3A2 A2B2 B2B3 B3B4 B4C4 C4C3 C3B3 B3A3 A3A4 A4B4 B4B3 B3B2 B2B1 B1C1 C1D1 D1D0 D0C0 C0C1 C1D1 D1D2 D2E2 E2E1 E1D1 D1C1 C1B1 B1B2 B2B3 B3A3 A3A2 A2B2 B2B3 B3B4 B4C4 C4C3 C3D3 D3D4 D4E4 E4E3 E3E2 E2E1 E1D1 D1C1 C1C2 C2D2 D2E2 E2E1 E1D1 D1C1 C1B1 B1A1 A1A2 A2B2 B2C2 C2C3 C3C4 C4B4 B4B3 B3C3 C3D3 D3D2 D2C2 C2B2 B2A2 A2A3 A3A4 A4B4 B4C4 C4C3 C3B3 B3B2 B2A2 A2A3 A3A4 A4B4 B4B3 B3B2 B2C2 C2C1 C1C0 C0B0 B0B1 B1B2 B2C2 C2C3 C3D3 D3E3 E3E4 E4D4 D4C4 C4C3 C3B3 B3B4 B4A4 A4A3 A3A2 A2B2 B2B1 B1B0 B0C0 C0D0 D0E0 E0E1 E1E2 E2D2 D2D3 D3D4 D4E4 E4E3 E3D3 D3D2 D2D1 D1E1 E1E2 E2E3 E3E4 E4D4 D4D3 D3D2 D2D1 D1D0 D0C0 C0B0 B0A0 A0A1 A1A2 A2B2 B2B1 B1B0 B0A0 A0A1 A1A2 A2A3 A3A4 A4B4 B4B3 B3B2 B2B1 B1B0 B0A0 A0A1 A1B1 B1B2 B2A2 A2A1 A1B1 B1C1 C1C2 C2B2 B2B1 B1A1 A1A2 A2B2 B2B1 B1A1 A1A2 A2B2 B2B3 B3B4 B4C4 C4C3 C3C2 C2C1 C1B1 B1B0 B0A0 A0A1 A1B1 B1B2 B2A2 A2A3 A3B3 B3C3 C3C4 C4B4 B4A4 A4A3 A3A2 A2B2 B2C2 C2C3 C3B3 B3A3 A3A4 A4B4 B4B3 B3A3 A3A2 A2A1 A1A0 A0B0 B0C0 C0C1 C1C2 C2C3 C3C4 C4B4 B4B3 B3B2 B2A2 A2A1 A1B1 B1B0 B0A0 A0A1 A1A2 A2B2 B2B1 B1B0 B0C0 C0C1 C1C2 C2D2 D2D3 D3C3 C3C4 C4B4 B4A4 A4A3 A3A2 A2B2 B2C2 C2C1 C1B1 B1B0 B0C0 C0D0 D0E0 E0E1 E1E2 E2E3 E3D3 D3D2 D2D1 D1D0 D0E0 E0E1 E1D1 D1D2 D2E2 E2E3 E3D3 D3C3 C3B3 B3B4 B4C4 C4D4 D4E4 E4E3 E3E2 E2D2 D2C2 C2C3 C3D3 D3D4 D4C4 C4C3 C3B3 B3B4 B4A4 A4A3 A3B3 B3B4 B4A4 A4A3 A3A2 A2A1 A1B1 B1C1 C1C2 C2B2 B2A2 A2A1 A1B1 B1C1 C1D1 D1D0 D0C0 C0C1 C1D1 D1D0 D0E0 E0E1 E1D1 D1D2 D2E2 E2E1 E1E0 E0D0 D0D1 D1D2 D2C2 C2C3 C3D3 D3D4 D4E4 E4E3 E3D3 D3C3 C3C2 C2B2 B2A2 A2A1 A1B1 B1C1 C1C0 C0B0 B0A0 A0A1 A1A2 A2A3 A3A4 A4B4 B4B3 B3B2 B2A2 A2A3 A3B3 B3C3 C3D3 D3D4 D4E4 E4E3 E3E2 E2D2 D2D3 D3C3 C3B3 B3A3 A3A2 A2B2 B2B1 B1B0 B0A0 A0A1 A1B1 B1C1 C1C0 C0B0 B0A0 A0A1 A1A2 A2B2 B2B3 B3B4 B4C4 C4D4 D4D3 D3D2 D2D1 D1E1 E1E2 E2D2 D2C2 C2B2 B2B1 B1B0 B0C0 C0C1 C1C2 C2D2 D2E2 E2E3 E3E4 E4D4 D4C4 C4C3 C3B3 B3A3 A3A4 A4B4 B4B3 B3C3 C3D3 D3E3"/>
    <vehicle id="bus_15.0" type="bus" depart="0.00" departPos="random" departSpeed="max" route="r7"/>